24
((4-chlorophenyl)methylene)-?-(1,1dimethylethyl)-1H-1,2,4-triazole-1ethanol, (E)-(?)-?-
C          3.64860       -4.47360        0.00000
C          3.31300       -5.22730        0.00000
O          4.46910       -4.38740        0.00000
N          2.75120       -2.53660        0.00000
N          3.41860       -3.02150        0.00000
C          3.16370       -3.80620        0.00000
N          2.33870       -3.80620        0.00000
C          2.08370       -3.02150        0.00000
C          3.15620       -1.81790        0.00000
C          3.98110       -1.80920        0.00000
C          4.38610       -1.09050        0.00000
C          4.40110       -2.51930        0.00000
C          2.34620       -1.81790        0.00000
C          1.52120       -1.80920        0.00000
C          1.10130       -2.51930        0.00000
C          1.11620       -1.09050        0.00000
C          3.79800       -5.89470        0.00000
C          3.46240       -6.64840        0.00000
C          3.94730       -7.31580        0.00000
C          3.61180       -8.06950        0.00000
C          2.79130       -8.15570        0.00000
C          2.30640       -7.48830        0.00000
C          2.64190       -6.73460        0.00000
Cl         2.45570       -8.90940        0.00000
