26
(1,3-dihydro-1,3-dioxo-2H-isoindol-2-yl) phosphonothioate
O          0.88380       -6.22340        0.00000
C          1.13870       -5.43880        0.00000
N          0.65380       -4.77140        0.00000
O         -0.17120       -4.77140        0.00000
P         -0.58370       -5.48580        0.00000
S         -0.17120       -6.20030        0.00000
O         -1.40870       -5.48580        0.00000
N         -1.82120       -6.20030        0.00000
C         -1.48560       -6.95400        0.00000
O         -0.67870       -7.12550        0.00000
C         -2.09870       -7.50600        0.00000
C         -2.09870       -8.33100        0.00000
C         -2.81320       -8.74350        0.00000
C         -3.52770       -8.33100        0.00000
C         -3.52770       -7.50600        0.00000
C         -2.81320       -7.09350        0.00000
C         -2.64170       -6.28650        0.00000
O         -3.19370       -5.67340        0.00000
C          1.13870       -4.10390        0.00000
O          0.88380       -3.31930        0.00000
C          1.92330       -4.35890        0.00000
C          2.63780       -3.94640        0.00000
C          3.35230       -4.35890        0.00000
C          3.35230       -5.18390        0.00000
C          2.63780       -5.59640        0.00000
C          1.92330       -5.18390        0.00000
