14
(1,3-benzothiazol-2-ylthio)methyl thiocyanate
N         -2.11900       -4.27410        0.00000
C         -1.40450       -3.86160        0.00000
S         -0.69000       -3.44910        0.00000
C          0.02440       -3.86160        0.00000
S          0.73890       -3.44910        0.00000
C          1.45340       -3.86160        0.00000
N          1.53960       -4.68210        0.00000
C          2.34660       -4.85360        0.00000
C          2.75910       -4.13920        0.00000
S          2.20710       -3.52610        0.00000
C          3.58410       -4.13920        0.00000
C          3.99660       -4.85360        0.00000
C          3.58410       -5.56810        0.00000
C          2.75910       -5.56810        0.00000
