8
(1-aminopropyl)phosphonic acid
C          0.11050       -2.06250        0.00000
C          0.11050       -1.23750        0.00000
C          0.82500       -0.82500        0.00000
N          1.53950       -1.23750        0.00000
P          0.82500        0.00000        0.00000
O          0.82500        0.82500        0.00000
O          1.65000        0.00000        0.00000
O          0.00000        0.00000        0.00000
