24
(2-chloro-4-fluoro-5-(1,3,4,5,6,7-hexahydro-1,3- dioxo-2H-isoindol-2-yl)phenoxy)acetate
O         -3.88370       -0.62050        0.00000
C         -3.05870       -0.62050        0.00000
O         -2.64620       -1.33490        0.00000
C         -2.64620        0.09400        0.00000
O         -1.82120        0.09400        0.00000
C         -1.40870        0.80850        0.00000
C         -1.82120        1.52290        0.00000
C         -1.40870        2.23740        0.00000
C         -0.58370        2.23740        0.00000
C         -0.17120        1.52290        0.00000
C         -0.58370        0.80850        0.00000
C          3.35230        1.93540        0.00000
C          3.35230        1.11040        0.00000
C          2.63780        0.69790        0.00000
C          1.92330        1.11040        0.00000
C          1.13870        0.85550        0.00000
N          0.65380        1.52290        0.00000
C          1.13870        2.19040        0.00000
C          1.92330        1.93540        0.00000
C          2.63780        2.34790        0.00000
O          0.88380        2.97500        0.00000
O          0.88380        0.07090        0.00000
F         -0.17120        2.95190        0.00000
Cl        -2.64620        1.52290        0.00000
