15
(E)-1-(2-chloro-1,3-thiazol-5-ylmethyl)-3-methyl-2-nitroguanidine
N         -0.14670        2.35180        0.00000
C         -0.14670        3.17680        0.00000
N         -0.86120        3.58930        0.00000
N          0.56780        3.58930        0.00000
N          0.56780        4.41430        0.00000
O          1.28220        4.82680        0.00000
O         -0.14670        4.82680        0.00000
C         -0.86120        4.41430        0.00000
C          0.56780        1.93930        0.00000
S          1.23520        0.62940        0.00000
C          0.98030       -0.15530        0.00000
N          0.15530       -0.15530        0.00000
C         -0.09970        0.62940        0.00000
C          0.56780        1.11430        0.00000
Cl         1.46520       -0.82270        0.00000
