15
(Z)-(1S,3S)-3- (2-chloro-3,3,3-trifluoropropenyl)-2-2- dimethylcyclopropanecarboxylate, (S)-?-
C         -0.17430        0.17430        0.00000
C          0.23820        0.88880        0.00000
C          0.65070        0.17430        0.00000
C         -0.88880       -0.23820        0.00000
O         -1.60330        0.17430        0.00000
O         -0.88880       -1.06320        0.00000
C         -0.23500        1.56460        0.00000
C          0.71140        1.56460        0.00000
C          1.36510       -0.23820        0.00000
C          1.36510       -1.06320        0.00000
C          2.07960       -1.47570        0.00000
F          2.79410       -1.88820        0.00000
F          1.66710       -2.19010        0.00000
F          2.49210       -0.76120        0.00000
Cl         0.65070       -1.47570        0.00000
