10
1(3H)-isobenzofuranon
O          0.88380       -2.15000        0.00000
C          1.13870       -1.36540        0.00000
O          0.65380       -0.69790        0.00000
C          1.13870       -0.03050        0.00000
C          1.92330       -0.28540        0.00000
C          2.63780        0.12710        0.00000
C          3.35230       -0.28540        0.00000
C          3.35230       -1.11040        0.00000
C          2.63780       -1.52290        0.00000
C          1.92330       -1.11040        0.00000
