8
1,2-Dichloroethane (ethylene dichloride)
Cl         2.47500        1.42890        0.00000
C          2.06250        0.71450        0.00000
C          1.23750        0.71450        0.00000
Cl         0.82500        1.42890        0.00000
C          0.82500        0.00000        0.00000
Cl         1.23750       -0.71450        0.00000
C          0.00000        0.00000        0.00000
Cl        -0.41250       -0.71450        0.00000
