23
1-(1-((4-chloro-2-(trifluoromethyl)phenyl)imino)-2- propoxyethyl)-1H-imidazole, (E)-
N          0.71450       -2.06250        0.00000
C          0.04700       -1.57760        0.00000
N          0.30200       -0.79300        0.00000
C          1.12700       -0.79300        0.00000
C          1.38190       -1.57760        0.00000
C          0.71450       -2.88750        0.00000
C          1.42890       -3.30000        0.00000
O          2.14340       -2.88750        0.00000
C          2.85790       -3.30000        0.00000
C          3.57240       -2.88750        0.00000
C          4.28680       -3.30000        0.00000
N          0.00000       -3.30000        0.00000
C         -0.71450       -2.88750        0.00000
C         -1.42890       -3.30000        0.00000
C         -2.14340       -2.88750        0.00000
C         -2.14340       -2.06250        0.00000
C         -1.42890       -1.65000        0.00000
C         -0.71450       -2.06250        0.00000
C         -1.42890       -4.12500        0.00000
F         -1.42890       -4.95000        0.00000
F         -2.25390       -4.12500        0.00000
F         -0.60390       -4.12500        0.00000
Cl        -2.85790       -1.65000        0.00000
