18
1-(2,4-dichloro-?-propylphenethyl)-1H- 1,2,4-triazole
N          0.00000        0.00000        0.00000
N         -0.75370       -0.33560        0.00000
C         -1.30570        0.27750        0.00000
N         -0.89320        0.99200        0.00000
C         -0.08620        0.82050        0.00000
C          0.71450       -0.41250        0.00000
C          0.71450       -1.23750        0.00000
C          0.00000       -1.65000        0.00000
C          0.00000       -2.47500        0.00000
C         -0.71450       -2.88750        0.00000
C         -1.42890       -2.47500        0.00000
C         -1.42890       -1.65000        0.00000
C         -0.71450       -1.23750        0.00000
C          1.42890       -1.65000        0.00000
C          2.14340       -1.23750        0.00000
C          2.85790       -1.65000        0.00000
Cl         1.42890        0.00000        0.00000
Cl        -2.14340       -2.88750        0.00000
