14
1-(2-cyano-2-methoxyiminoacetyl)-3-ethylurea
C          1.76050        1.84140        0.00000
C          2.47500        1.42890        0.00000
N          3.18950        1.84140        0.00000
C          3.90390        1.42890        0.00000
O          3.90390        0.60390        0.00000
N          4.61840        1.84140        0.00000
C          5.33290        1.42890        0.00000
O          5.33290        0.60390        0.00000
C          6.04740        1.84140        0.00000
N          6.76180        1.42890        0.00000
O          7.47630        1.84140        0.00000
C          7.47630        2.66640        0.00000
C          6.04740        2.66640        0.00000
N          6.04740        3.49140        0.00000
