21
1-(3-methylphenyl)-5-phenyl-1H-1,2,4- triazole-3-carboxamide
N          0.71450       -1.23750        0.00000
N          1.38190       -1.72240        0.00000
C          1.12700       -2.50700        0.00000
N          0.30200       -2.50700        0.00000
C          0.04700       -1.72240        0.00000
C          1.61190       -3.17450        0.00000
O          1.27630       -3.92820        0.00000
N          2.43240       -3.08820        0.00000
C         -0.73760       -1.46750        0.00000
C         -1.35070       -2.01950        0.00000
C         -2.13530       -1.76460        0.00000
C         -2.30680       -0.95760        0.00000
C         -1.69370       -0.40560        0.00000
C         -0.90910       -0.66050        0.00000
C          0.71450       -0.41250        0.00000
C          0.00000        0.00000        0.00000
C          0.00000        0.82500        0.00000
C          0.71450        1.23750        0.00000
C          1.42890        0.82500        0.00000
C          1.42890        0.00000        0.00000
C         -0.71450        1.23750        0.00000
