31
1-(4,6-dimethoxypyrimidin-2-yl)-3-(2-ethylsulfonylimidazo[1, 2-a]pyridin-3-yl)sulfonylurea
C         -1.40870       -1.41240        0.00000
C         -0.99620       -0.69790        0.00000
S         -0.17120       -0.69790        0.00000
O         -0.17120       -1.52290        0.00000
O         -0.17120        0.12710        0.00000
C          0.65380       -0.69790        0.00000
C          1.13870       -0.03050        0.00000
N          1.92330       -0.28540        0.00000
C          2.63780        0.12710        0.00000
C          3.35230       -0.28540        0.00000
C          3.35230       -1.11040        0.00000
C          2.63780       -1.52290        0.00000
C          1.92330       -1.11040        0.00000
N          1.13870       -1.36540        0.00000
S          0.88380        0.75410        0.00000
O          1.66840        1.00910        0.00000
O          0.09920        0.49920        0.00000
N          0.62880        1.53870        0.00000
C          1.18090        2.15180        0.00000
O          1.98780        1.98030        0.00000
N          0.92590        2.93650        0.00000
C          1.47800        3.54960        0.00000
N          1.22300        4.33420        0.00000
C          1.77510        4.94730        0.00000
O          1.52010        5.73190        0.00000
C          2.07220        6.34500        0.00000
C          2.58200        4.77570        0.00000
C          2.83700        3.99110        0.00000
O          3.64390        3.81960        0.00000
C          3.89890        3.03500        0.00000
N          2.28490        3.37800        0.00000
