24
1-(8-hydroxy-5-quinolinyl)-ethanone sulfate (2:1)
C         -0.51030        1.35540        0.00000
C         -1.22480        1.76790        0.00000
O          0.20410        1.76790        0.00000
C         -1.22480       -0.70710        0.00000
C         -0.51030       -1.11960        0.00000
C          0.20410       -0.70710        0.00000
C          0.20410        0.11790        0.00000
C         -0.51030        0.53040        0.00000
C         -1.22480        0.11790        0.00000
C          0.91860        0.53040        0.00000
C          1.63310        0.11790        0.00000
C          1.63310       -0.70710        0.00000
N          0.91860       -1.11960        0.00000
O         -0.51030       -1.94460        0.00000
S          4.46160        0.00000        0.00000
O          4.46160       -0.82500        0.00000
O          4.46160        0.82500        0.00000
O          5.28660        0.00000        0.00000
O          3.63660        0.00000        0.00000
S          0.00000       -4.41960        0.00000
O          0.00000       -5.24460        0.00000
O          0.00000       -3.59460        0.00000
O          0.82500       -4.41960        0.00000
O         -0.82500       -4.41960        0.00000
