20
1-dodecylguanidinium acetate
C          7.23360        5.00130        0.00000
C          7.94800        5.41380        0.00000
C          8.66250        5.00130        0.00000
C          9.37700        5.41380        0.00000
C         10.09140        5.00130        0.00000
C         10.80590        5.41380        0.00000
C         11.52040        5.00130        0.00000
C         12.23490        5.41380        0.00000
C         12.94930        5.00130        0.00000
C         13.66380        5.41380        0.00000
C         14.37830        5.00130        0.00000
C         15.09270        5.41380        0.00000
N         15.80720        5.00130        0.00000
C         16.52170        5.41380        0.00000
N         16.52170        6.23880        0.00000
N         17.23620        5.00130        0.00000
O         17.95060        5.41380        0.00000
C         18.66510        5.00130        0.00000
C         19.37960        5.41380        0.00000
O         18.66510        4.17630        0.00000
