25
1-methylethyl N-benzoyl-N-(3-chloro-4- fluorophenyl)-DL-alanine
N          5.18370       -5.59630        0.00000
C          3.64370       -5.59630        0.00000
C          2.87370       -4.26260        0.00000
C          2.87370       -6.93000        0.00000
O          1.33370       -6.93000        0.00000
O          3.64370       -8.26370        0.00000
C          5.95370       -4.26260        0.00000
C          5.18370       -2.92900        0.00000
C          5.95370       -1.59530        0.00000
C          7.49370       -1.59530        0.00000
C          8.26370       -2.92900        0.00000
C          7.49370       -4.26260        0.00000
F          8.26370       -0.26160        0.00000
Cl         5.18370       -0.26160        0.00000
C          5.95370       -6.93000        0.00000
O          5.18370       -8.26370        0.00000
C          7.49370       -6.93000        0.00000
C          8.26370       -5.59630        0.00000
C          9.80370       -5.59630        0.00000
C         10.57370       -6.93000        0.00000
C          9.80370       -8.26370        0.00000
C          8.26370       -8.26370        0.00000
C          0.56370       -8.26370        0.00000
C          1.33370       -9.59740        0.00000
C         -0.97630       -8.26370        0.00000
