31
1-methoxy-4-(1,2,2,2-tetrachloroethyl)benzene 1-methyl-2-(3-pyridyl)pyrrolidine sulfate
S          0.00000        0.00000        0.00000
O          0.00000       -0.82500        0.00000
O          0.00000        0.82500        0.00000
O          0.82500        0.00000        0.00000
O         -0.82500        0.00000        0.00000
N          3.73170        0.21120        0.00000
C          4.39920       -0.27370        0.00000
C          4.14420       -1.05840        0.00000
C          3.31920       -1.05840        0.00000
C          3.06430       -0.27370        0.00000
N          6.58150       -0.31590        0.00000
C          5.79690       -0.57080        0.00000
C          5.18380       -0.01880        0.00000
C          5.35530        0.78820        0.00000
C          6.13990        1.04310        0.00000
C          6.75300        0.49110        0.00000
C          3.73170        1.03620        0.00000
C          0.25520       -3.94590        0.00000
C          0.96960       -4.35840        0.00000
C          0.96960       -5.18340        0.00000
C          0.25520       -5.59590        0.00000
C         -0.45930       -5.18340        0.00000
C         -0.45930       -4.35840        0.00000
C          0.25520       -6.42090        0.00000
C         -0.45930       -6.83340        0.00000
Cl         0.96960       -6.83340        0.00000
Cl        -1.17380       -7.24590        0.00000
Cl        -0.04680       -7.54780        0.00000
Cl        -0.87180       -6.11890        0.00000
O          0.25520       -3.12090        0.00000
C         -0.45930       -2.70840        0.00000
