25
1-naphthol naphthoxyacetic acid
C          2.14340       -3.71250        0.00000
C          2.14340       -2.88750        0.00000
O          2.85790       -2.47500        0.00000
O          2.85790       -4.12500        0.00000
C          5.00130       -5.36250        0.00000
C          4.28680       -4.95000        0.00000
C          3.57240       -5.36250        0.00000
C          3.57240       -6.18750        0.00000
C          4.28680       -6.60000        0.00000
C          5.00130       -6.18750        0.00000
C          2.85790       -6.60000        0.00000
C          2.14340       -6.18750        0.00000
C          2.14340       -5.36250        0.00000
C          2.85790       -4.95000        0.00000
C         -0.71450       -1.23750        0.00000
C          0.00000       -1.65000        0.00000
C          0.71450       -1.23750        0.00000
C          0.71450       -0.41250        0.00000
C          0.00000        0.00000        0.00000
C         -0.71450       -0.41250        0.00000
C          1.42890        0.00000        0.00000
C          2.14340       -0.41250        0.00000
C          2.14340       -1.23750        0.00000
C          1.42890       -1.65000        0.00000
O          1.42890       -2.47500        0.00000
