22
1-{[bis-(4-fluorophenyl)methylsilanyl]methyl}-1H-[1,2,4]triazole
F         -0.10670        2.41340        0.00000
C          0.60780        2.00090        0.00000
C          1.32220        2.41340        0.00000
C          2.03670        2.00090        0.00000
C          2.03670        1.17590        0.00000
C          1.32220        0.76340        0.00000
C          0.60780        1.17590        0.00000
C          2.75120        0.76340        0.00000
Si         2.75120       -0.06160        0.00000
C          3.46560       -0.47410        0.00000
N          3.46560       -1.29910        0.00000
C          4.13310       -1.78400        0.00000
N          3.87810       -2.56870        0.00000
C          3.05310       -2.56870        0.00000
N          2.79820       -1.78400        0.00000
C          3.46560        1.17590        0.00000
C          3.46560        2.00090        0.00000
C          4.18010        2.41340        0.00000
C          4.89460        2.00090        0.00000
F          5.60910        2.41340        0.00000
C          4.89460        1.17590        0.00000
C          4.18010        0.76340        0.00000
