12
116-06-3
C          1.95200        0.30200        0.00000
C          1.23750        0.71450        0.00000
S          1.65000        1.42890        0.00000
C          2.47500        1.42890        0.00000
C          0.82500        0.00000        0.00000
N          0.00000        0.00000        0.00000
O         -0.41250       -0.71450        0.00000
C          0.00000       -1.42890        0.00000
O          0.82500       -1.42890        0.00000
N         -0.41250       -2.14340        0.00000
C          0.00000       -2.85790        0.00000
C          0.52300        1.12700        0.00000
