7
128-04-1
C          0.20620       -1.07170        0.00000
N         -0.20630       -0.35720        0.00000
C          0.20630        0.35720        0.00000
S         -0.20620        1.07170        0.00000
S          1.03130        0.35720        0.00000
C         -1.03130       -0.35720        0.00000
Na         3.27050        0.00000        0.00000
