22
17alpha-ethynylestradiol
C         -2.03610       -0.61220        0.00000
C         -1.67620       -1.35460        0.00000
C         -1.14440       -0.72390        0.00000
C         -0.33230       -0.86910        0.00000
C         -0.05200       -1.64500        0.00000
C         -0.58380       -2.27570        0.00000
C         -0.30350       -3.05160        0.00000
C          0.50860       -3.19690        0.00000
C          1.04040       -2.56620        0.00000
C          0.76010       -1.79020        0.00000
C          1.29200       -1.15950        0.00000
C          2.10410       -1.30470        0.00000
C          2.38440       -2.08070        0.00000
O          3.19650       -2.22590        0.00000
C          1.85260       -2.71140        0.00000
C         -1.39590       -2.13050        0.00000
C         -2.04730       -2.63690        0.00000
C         -2.73010       -2.17390        0.00000
C         -2.50080       -1.38140        0.00000
O         -3.26170       -1.06250        0.00000
C         -2.62220       -0.56540        0.00000
C         -2.74360        0.25060        0.00000
