10
1H-benzimidazol-2-ylamine
N         -1.45340       -0.69790        0.00000
C         -0.62840       -0.69790        0.00000
N         -0.14350       -1.36540        0.00000
C          0.64110       -1.11040        0.00000
C          0.64110       -0.28540        0.00000
N         -0.14350       -0.03050        0.00000
C          1.35560        0.12710        0.00000
C          2.07010       -0.28540        0.00000
C          2.07010       -1.11040        0.00000
C          1.35560       -1.52290        0.00000
