23
2',4'-dichloro-5'-(4-difluoromethyl-4,5- dihydro-3-methyl-5-oxo-1H-1,2,4- triazol-1-yl)methanesulfonanilide
O          2.25010        2.00090        0.00000
S          1.53560        2.41340        0.00000
O          1.53560        3.23840        0.00000
N          0.82120        2.00090        0.00000
C          0.10670        2.41340        0.00000
C         -0.60780        2.00090        0.00000
C         -1.32220        2.41340        0.00000
C         -1.32220        3.23840        0.00000
C         -0.60780        3.65090        0.00000
C          0.10670        3.23840        0.00000
C         -2.03670        2.00090        0.00000
N         -2.03670        1.17590        0.00000
N         -1.36930        0.69100        0.00000
C         -1.62420       -0.09370        0.00000
N         -2.44920       -0.09370        0.00000
C         -2.70410        0.69100        0.00000
O         -3.48880        0.94590        0.00000
C         -1.13930       -0.76110        0.00000
C         -2.93410       -0.76110        0.00000
F         -2.59860       -1.51480        0.00000
F         -3.75460       -0.67490        0.00000
Cl         0.82120        3.65090        0.00000
Cl        -2.03670        3.65090        0.00000
