27
2,3,5,6-tetrafluoro-4-methylbenzyl-3-(2-chloro-3,3,3-trifluoro-1-propenyl) -2,2-dimethyl-1-cyclopropanecarboxylate
C          1.57060        7.20060        0.00000
C          1.71390        6.38810        0.00000
C          2.48910        6.10590        0.00000
F          3.12110        6.63620        0.00000
C          2.63240        5.29350        0.00000
F          3.40760        5.01130        0.00000
C          2.00040        4.76320        0.00000
C          2.14360        3.95070        0.00000
C          1.51170        3.42040        0.00000
C          1.09920        2.70590        0.00000
C          0.38470        2.29340        0.00000
C          0.38470        1.46840        0.00000
Cl         1.09920        1.05590        0.00000
C         -0.32980        1.05590        0.00000
F         -1.04430        0.64340        0.00000
F          0.08270        0.34140        0.00000
F         -0.74230        1.77040        0.00000
C          1.92420        2.70590        0.00000
C          2.27280        1.95820        0.00000
C          2.74600        2.77780        0.00000
C          0.87970        3.95070        0.00000
O          0.10440        3.66850        0.00000
O          1.02290        4.76320        0.00000
C          1.22510        5.04530        0.00000
F          0.46020        4.73630        0.00000
C          1.08190        5.85780        0.00000
F          0.30660        6.14000        0.00000
