12
2,4,6,8-Tetramethyl-1,3,5,7-tetroxocan
C          0.99590        2.31540        0.00000
C          0.99590        1.49040        0.00000
O          1.75810        1.17470        0.00000
C          2.07380        0.41250        0.00000
C          2.89880        0.41250        0.00000
O          1.75810       -0.34970        0.00000
C          0.99590       -0.66540        0.00000
C          0.99590       -1.49040        0.00000
O          0.23370       -0.34970        0.00000
C         -0.08210        0.41250        0.00000
C         -0.90710        0.41250        0.00000
O          0.23370        1.17470        0.00000
