11
2,5-dioxo-3-prop-2-ynylimidazolidin-1-ylmethyl
C          0.56780        1.93930        0.00000
N          0.56780        1.11430        0.00000
C          1.23520        0.62940        0.00000
O          2.01980        0.88430        0.00000
C          0.98030       -0.15530        0.00000
N          0.15530       -0.15530        0.00000
C         -0.32970       -0.82270        0.00000
C          0.00590       -1.57640        0.00000
C          0.34150       -2.33000        0.00000
C         -0.09970        0.62940        0.00000
O         -0.88430        0.88430        0.00000
