32
2,6-bis-(4,6-dimethoxypyrimidin-2-yl-oxy)benzoic acid sodium salt
Na         0.00000        0.00000        0.00000
C         10.09850        2.22220        0.00000
O          9.38400        1.80970        0.00000
C          9.38400        0.98470        0.00000
C         10.09850        0.57220        0.00000
C         10.09850       -0.25280        0.00000
O         10.81290       -0.66530        0.00000
C         10.81290       -1.49030        0.00000
N          9.38400       -0.66530        0.00000
C          8.66950       -0.25280        0.00000
O          7.95510       -0.66530        0.00000
C          7.24060       -0.25280        0.00000
C          7.24060        0.57220        0.00000
C          6.52610        0.98470        0.00000
C          5.81160        0.57220        0.00000
C          5.81160       -0.25280        0.00000
O          5.09720       -0.66530        0.00000
C          4.38270       -0.25280        0.00000
N          3.66820       -0.66530        0.00000
C          2.95380       -0.25280        0.00000
O          2.23930       -0.66530        0.00000
C          2.23930       -1.49030        0.00000
C          2.95380        0.57220        0.00000
C          3.66820        0.98470        0.00000
O          3.66820        1.80970        0.00000
C          4.38270        2.22220        0.00000
N          4.38270        0.57220        0.00000
C          6.52610       -0.66530        0.00000
C          6.52610       -1.49030        0.00000
O          5.81160       -1.90280        0.00000
O          7.24060       -1.90280        0.00000
N          8.66950        0.57220        0.00000
