18
2,6-dichloro-4-phenylpyridine-3,5-dicarbonitrile
Cl         0.71450       -0.41250        0.00000
C          0.71450       -1.23750        0.00000
N          1.42890       -1.65000        0.00000
C          1.42890       -2.47500        0.00000
Cl         2.14340       -2.88750        0.00000
C          0.71450       -2.88750        0.00000
C          0.71450       -3.71250        0.00000
N          0.71450       -4.53750        0.00000
C          0.00000       -2.47500        0.00000
C         -0.71450       -2.88750        0.00000
C         -0.71450       -3.71250        0.00000
C         -1.42890       -4.12500        0.00000
C         -2.14340       -3.71250        0.00000
C         -2.14340       -2.88750        0.00000
C         -1.42890       -2.47500        0.00000
C          0.00000       -1.65000        0.00000
C         -0.71450       -1.23750        0.00000
N         -1.42890       -0.82500        0.00000
