45
2,6-bis(1-methylethyl)naphthalene 2,6-diisopropylnaphthalene 2-(m-chlorophenoxy)propionamide
C          0.71450       -2.88750        0.00000
C          1.42890       -2.47500        0.00000
C          0.71450       -3.71250        0.00000
O          0.54290       -4.51950        0.00000
N          0.00000       -4.12500        0.00000
O          0.00000       -2.47500        0.00000
C         -0.71450       -2.88750        0.00000
C         -1.42890       -2.47500        0.00000
C         -2.14340       -2.88750        0.00000
C         -2.14340       -3.71250        0.00000
C         -1.42890       -4.12500        0.00000
C         -0.71450       -3.71250        0.00000
Cl        -2.85790       -2.47500        0.00000
C          0.66410       -4.82890        0.00000
C          0.91910       -4.04420        0.00000
C          1.72600       -3.87270        0.00000
C          2.27810       -4.48580        0.00000
C          2.02310       -5.27040        0.00000
C          1.21620       -5.44200        0.00000
C          3.08500       -4.31430        0.00000
C          3.34000       -3.52970        0.00000
C          2.78790       -2.91660        0.00000
C          1.98100       -3.08810        0.00000
C          2.49090       -1.51890        0.00000
C          3.04290       -2.13190        0.00000
C          3.84990       -1.96040        0.00000
C          1.51330       -6.83970        0.00000
C          0.96120       -6.22660        0.00000
C          0.15420       -6.39810        0.00000
C         -0.71450       -1.23750        0.00000
C          0.00000       -1.65000        0.00000
C          0.71450       -1.23750        0.00000
C          0.71450       -0.41250        0.00000
C          0.00000        0.00000        0.00000
C         -0.71450       -0.41250        0.00000
C          1.42890        0.00000        0.00000
C          2.14340       -0.41250        0.00000
C          2.14340       -1.23750        0.00000
C          1.42890       -1.65000        0.00000
C          2.85790       -1.65000        0.00000
C          3.52530       -2.13490        0.00000
C          3.57240       -1.23750        0.00000
C         -1.42890        0.00000        0.00000
C         -2.14340       -0.41250        0.00000
C         -1.42890        0.82500        0.00000
