42
2-(1,3-benzothiazol-2-yloxy)-N- methylacetanilide 2-benzothiazol-2-yloxy-N- methylacetanilide
C         -2.69090       -1.41240        0.00000
C         -3.10340       -0.69790        0.00000
O         -2.69090        0.01650        0.00000
N         -3.92840       -0.69790        0.00000
C         -4.34090        0.01650        0.00000
C         -5.16590        0.01650        0.00000
C         -5.57840        0.73100        0.00000
C         -5.16590        1.44550        0.00000
C         -4.34090        1.44550        0.00000
C         -3.92840        0.73100        0.00000
C         -4.68210       -1.03350        0.00000
O         -3.10340       -2.12690        0.00000
C         -5.19800       -2.53940        0.00000
S         -4.41340       -2.79430        0.00000
C         -3.92840       -2.12690        0.00000
N         -4.41340       -1.45940        0.00000
C         -5.19800       -1.71440        0.00000
C         -5.91240       -1.30190        0.00000
C         -6.62690       -1.71440        0.00000
C         -6.62690       -2.53940        0.00000
C         -5.91240       -2.95190        0.00000
C         -1.86590       -1.41240        0.00000
C         -1.45340       -2.12690        0.00000
O         -1.86590       -2.84140        0.00000
N         -0.62840       -2.12690        0.00000
C         -0.21590       -2.84140        0.00000
C          0.60910       -2.84140        0.00000
C          1.02160       -3.55580        0.00000
C          0.60910       -4.27030        0.00000
C         -0.21590       -4.27030        0.00000
C         -0.62840       -3.55580        0.00000
C          0.12520       -1.79130        0.00000
O         -1.45340       -0.69790        0.00000
C          0.64110       -1.11040        0.00000
S         -0.14350       -1.36540        0.00000
C         -0.62840       -0.69790        0.00000
N         -0.14350       -0.03050        0.00000
C          0.64110       -0.28540        0.00000
C          1.35560        0.12710        0.00000
C          2.07010       -0.28540        0.00000
C          2.07010       -1.11040        0.00000
C          1.35560       -1.52290        0.00000
