14
2-(trifluoromethyl)benzenesulfonamide
N          0.71450        2.88750        0.00000
S          0.71450        2.06250        0.00000
O         -0.11050        2.06250        0.00000
O          1.53950        2.06250        0.00000
C          0.71450        1.23750        0.00000
C          1.42890        0.82500        0.00000
C          1.42890        0.00000        0.00000
C          0.71450       -0.41250        0.00000
C          0.00000        0.00000        0.00000
C          0.00000        0.82500        0.00000
C          2.14340        1.23750        0.00000
F          2.85790        1.65000        0.00000
F          2.55590        0.52300        0.00000
F          1.97190        2.04450        0.00000
