24
2-[4-chloro-2-fluoro-5-[(1-methyl-2-propynyl)oxy]phenyl]-4,5,6,7-tetrahydro-1H-isoindole-1,3(2H)-dione
C         -1.86590        1.44550        0.00000
C         -2.69090        1.44550        0.00000
O         -3.10340        0.73100        0.00000
C         -2.69090        0.01650        0.00000
C         -1.86590        0.01650        0.00000
C         -1.45340       -0.69790        0.00000
N         -0.62840       -0.69790        0.00000
C         -0.14350       -1.36540        0.00000
O         -0.39840       -2.15000        0.00000
C          0.64110       -1.11040        0.00000
C          0.64110       -0.28540        0.00000
C          1.35560        0.12710        0.00000
C          2.07010       -0.28540        0.00000
C          2.07010       -1.11040        0.00000
C          1.35560       -1.52290        0.00000
C         -0.14350       -0.03050        0.00000
O         -0.39840        0.75410        0.00000
C         -1.86590       -1.41240        0.00000
F         -1.45340       -2.12690        0.00000
C         -2.69090       -1.41240        0.00000
C         -3.10340       -0.69790        0.00000
Cl        -3.92840       -0.69790        0.00000
C         -3.10340        2.15990        0.00000
C         -3.51590        2.87440        0.00000
