10
2-aminobutane 2-butylamine
C          1.95200        0.30200        0.00000
C          1.23750        0.71450        0.00000
C          1.65000        1.42890        0.00000
C          1.23750        2.14340        0.00000
N          0.52300        1.12700        0.00000
C          0.82500        0.00000        0.00000
C          1.23750       -0.71450        0.00000
C          0.82500       -1.42890        0.00000
C          1.23750       -2.14340        0.00000
N          0.00000        0.00000        0.00000
