24
2-amino-4-(1-fluoro-1-methylethyl)-6-(1-methyl-2-(3,5-dimethylphenoxy)ethylamino)-1,3,5-triazine
C          2.14340       -3.71250        0.00000
C          2.14340       -2.88750        0.00000
C          1.42890       -2.47500        0.00000
O          0.71450       -2.88750        0.00000
C          0.00000       -2.47500        0.00000
C         -0.71450       -2.88750        0.00000
C         -1.42890       -2.47500        0.00000
C         -2.14340       -2.88750        0.00000
C         -1.42890       -1.65000        0.00000
C         -0.71450       -1.23750        0.00000
C         -0.71450       -0.41250        0.00000
C          0.00000       -1.65000        0.00000
N          2.85790       -2.47500        0.00000
C          3.57240       -2.88750        0.00000
N          4.28680       -2.47500        0.00000
C          5.00130       -2.88750        0.00000
N          5.00130       -3.71250        0.00000
C          4.28680       -4.12500        0.00000
N          4.28680       -4.95000        0.00000
N          3.57240       -3.71250        0.00000
C          5.71580       -2.47500        0.00000
C          6.43020       -2.06250        0.00000
C          6.12830       -3.18950        0.00000
F          5.30330       -1.76050        0.00000
