17
2-Anilino-4-methyl-6-cyclopropyl-pyrimidin
C          3.57240       -1.23750        0.00000
C          2.85790       -1.65000        0.00000
C          2.85790       -2.47500        0.00000
C          2.14340       -2.88750        0.00000
N          1.42890       -2.47500        0.00000
C          1.42890       -1.65000        0.00000
N          0.71450       -1.23750        0.00000
C          0.71450       -0.41250        0.00000
C          0.00000        0.00000        0.00000
C          0.00000        0.82500        0.00000
C          0.71450        1.23750        0.00000
C          1.42890        0.82500        0.00000
C          1.42890        0.00000        0.00000
N          2.14340       -1.23750        0.00000
C          2.14340       -3.71250        0.00000
C          2.55590       -4.42700        0.00000
C          1.73090       -4.42700        0.00000
