18
2-chloro-4-trichloromethyl-6-(2-furylmethoxy)pyridine
Cl        -2.03670        6.00270        0.00000
C         -2.75120        5.59020        0.00000
N         -2.75120        4.76520        0.00000
C         -3.46560        4.35270        0.00000
O         -3.46560        3.52770        0.00000
C         -2.75120        3.11520        0.00000
C         -2.75120        2.29020        0.00000
C         -2.08370        1.80530        0.00000
C         -2.33870        1.02060        0.00000
C         -3.16370        1.02060        0.00000
O         -3.41860        1.80530        0.00000
C         -4.18010        4.76520        0.00000
C         -4.18010        5.59020        0.00000
C         -3.46560        6.00270        0.00000
C         -4.89460        6.00270        0.00000
Cl        -5.60910        6.41520        0.00000
Cl        -4.48210        6.71720        0.00000
Cl        -5.30710        5.28820        0.00000
