23
2-chloro-5-(3,6-di-hydro-3-methyl-2,6-dioxo-4-trifluoromethyl-1(2H)-pyrimidinyl)benzoate
C          0.71450       -0.41250        0.00000
N          0.71450       -1.23750        0.00000
C          1.42890       -1.65000        0.00000
O          2.14340       -1.23750        0.00000
N          1.42890       -2.47500        0.00000
C          0.71450       -2.88750        0.00000
O          0.71450       -3.71250        0.00000
C          0.00000       -2.47500        0.00000
C          0.00000       -1.65000        0.00000
C         -0.71450       -1.23750        0.00000
F         -1.42890       -0.82500        0.00000
F         -1.12700       -1.95200        0.00000
F         -0.30200       -0.52300        0.00000
C          2.14340       -2.88750        0.00000
C          2.85790       -2.47500        0.00000
C          3.57240       -2.88750        0.00000
C          4.28680       -2.47500        0.00000
O          4.28680       -1.65000        0.00000
O          5.00130       -2.88750        0.00000
C          3.57240       -3.71250        0.00000
Cl         4.28680       -4.12500        0.00000
C          2.85790       -4.12500        0.00000
C          2.14340       -3.71250        0.00000
