19
2-ethoxy-2,3-dihydro-3,3-dimethyl-5-benzofuranylmethanesulphonate
C         -1.40870       -1.41240        0.00000
C         -0.58370       -1.41240        0.00000
O         -0.17120       -0.69790        0.00000
C          0.65380       -0.69790        0.00000
C          1.13870       -0.03050        0.00000
C          0.88380        0.75410        0.00000
S          0.07680        0.92560        0.00000
O         -0.73020        1.09720        0.00000
O          0.24830        1.73260        0.00000
O         -0.09470        0.11870        0.00000
C          1.92330       -0.28540        0.00000
C          2.63780        0.12710        0.00000
C          3.35230       -0.28540        0.00000
O          3.35230       -1.11040        0.00000
C          2.63780       -1.52290        0.00000
C          1.92330       -1.11040        0.00000
C          1.13870       -1.36540        0.00000
C          1.30180       -2.17410        0.00000
C          0.53140       -1.92380        0.00000
