52
2-heptadecyl-2-imidazoline acetate acetic acid-2-heptadecyl-2-imidazoline (1:1)
O         -5.70580        1.91410        0.00000
C         -5.53430        1.10720        0.00000
O         -6.14740        0.55510        0.00000
C         -4.74970        0.85220        0.00000
N         -4.57810        0.04530        0.00000
C         -3.82450       -0.29030        0.00000
N         -3.91070       -1.11080        0.00000
C         -4.71770       -1.28230        0.00000
C         -5.13020       -0.56780        0.00000
C         -3.11000        0.12220        0.00000
C         -2.39550       -0.29030        0.00000
C         -1.68100        0.12220        0.00000
C         -0.96660       -0.29030        0.00000
C         -0.25210        0.12220        0.00000
C          0.46240       -0.29030        0.00000
C          1.17680        0.12220        0.00000
C          1.89130       -0.29030        0.00000
C          2.60580        0.12220        0.00000
C          3.32030       -0.29030        0.00000
C          4.03470        0.12220        0.00000
C          4.74920       -0.29030        0.00000
C          5.46370        0.12220        0.00000
C          6.17810       -0.29030        0.00000
C          6.89260        0.12220        0.00000
C          7.60710       -0.29030        0.00000
C          8.32150        0.12220        0.00000
N         11.11290       -0.00050        0.00000
C         11.86650       -0.33600        0.00000
N         11.78030       -1.15650        0.00000
C         10.97330       -1.32800        0.00000
C         10.56080       -0.61350        0.00000
C         12.58100        0.07650        0.00000
C         13.29550       -0.33600        0.00000
C         14.01000        0.07650        0.00000
C         14.72440       -0.33600        0.00000
C         15.43890        0.07650        0.00000
C         16.15340       -0.33600        0.00000
C         16.86780        0.07650        0.00000
C         17.58230       -0.33600        0.00000
C         18.29680        0.07650        0.00000
C         19.01130       -0.33600        0.00000
C         19.72570        0.07650        0.00000
C         20.44020       -0.33600        0.00000
C         21.15470        0.07650        0.00000
C         21.86910       -0.33600        0.00000
C         22.58360        0.07650        0.00000
C         23.29810       -0.33600        0.00000
C         24.01250        0.07650        0.00000
C         10.94130        0.80650        0.00000
C         11.55440        1.35860        0.00000
O         11.38290        2.16550        0.00000
O         12.33910        1.10360        0.00000
