13
2-Methoxy-5-nitrophenol sodium salt
Na         0.00000        0.00000        0.00000
C          4.14700        0.72190        0.00000
C          4.86150        0.30940        0.00000
C          4.86150       -0.51560        0.00000
C          4.14700       -0.92810        0.00000
C          3.43250       -0.51560        0.00000
C          3.43250        0.30940        0.00000
O          4.14700        1.54690        0.00000
N          2.71800       -0.92810        0.00000
O          2.00360       -0.51560        0.00000
O          2.71800       -1.75310        0.00000
O          5.57590        0.72190        0.00000
C          5.57590        1.54690        0.00000
