6
2-methoxyethylmercury chloride
C         -0.19140       -0.71450        0.00000
O          0.52300       -1.12700        0.00000
C          1.23750       -0.71450        0.00000
C          1.95200       -1.12700        0.00000
Hg         2.66640       -0.71450        0.00000
Cl         3.38090       -0.30200        0.00000
