13
2-Methyl-4-chlorophenoxyacetic acid
C          0.71450        2.06250        0.00000
C          0.71450        1.23750        0.00000
C          1.42890        0.82500        0.00000
O          2.14340        1.23750        0.00000
C          2.14340        2.06250        0.00000
C          2.85790        2.47500        0.00000
O          2.85790        3.30000        0.00000
O          3.57240        2.06250        0.00000
C          1.42890        0.00000        0.00000
C          0.71450       -0.41250        0.00000
C          0.00000        0.00000        0.00000
Cl        -0.71450       -0.41250        0.00000
C          0.00000        0.82500        0.00000
