14
2-n-octyl-3-isothiazolone
C          3.51080       -4.32050        0.00000
C          4.22530       -3.90800        0.00000
C          4.93980       -4.32050        0.00000
C          5.65420       -3.90800        0.00000
C          6.36870       -4.32050        0.00000
C          7.08320       -3.90800        0.00000
C          7.79760       -4.32050        0.00000
C          8.51210       -3.90800        0.00000
N          9.22660       -4.32050        0.00000
S          9.98030       -3.98490        0.00000
C         10.53230       -4.59800        0.00000
C         10.11980       -5.31250        0.00000
C          9.31280       -5.14100        0.00000
O          8.69970       -5.69300        0.00000
