16
21452-18-6
C          3.46560        1.17590        0.00000
C          3.46560        2.00090        0.00000
C          4.18010        2.41340        0.00000
C          4.89460        2.00090        0.00000
C          4.89460        1.17590        0.00000
C          4.18010        0.76340        0.00000
N          4.18010       -0.06160        0.00000
C          3.46560       -0.47410        0.00000
C          3.46560       -1.29910        0.00000
C          4.13310       -1.78400        0.00000
N          3.87810       -2.56870        0.00000
C          3.05310       -2.56870        0.00000
C          2.56820       -3.23610        0.00000
S          2.79820       -1.78400        0.00000
C          4.91770       -1.52910        0.00000
O          2.75120       -0.06160        0.00000
