12
3,4,5,6-tetrahydrophthalimidomethyl
C         -1.45340       -0.69790        0.00000
N         -0.62840       -0.69790        0.00000
C         -0.14350       -1.36540        0.00000
O         -0.39840       -2.15000        0.00000
C          0.64110       -1.11040        0.00000
C          0.64110       -0.28540        0.00000
C          1.35560        0.12710        0.00000
C          2.07010       -0.28540        0.00000
C          2.07010       -1.11040        0.00000
C          1.35560       -1.52290        0.00000
C         -0.14350       -0.03050        0.00000
O         -0.39840        0.75410        0.00000
