13
3-(1-hydroxyethylidene)-6-methyl-2H- pyran-2,4(3H)-dione sodium salt
Na         0.00000        0.00000        0.00000
O          4.14700        0.89380        0.00000
C          4.14700        0.06870        0.00000
C          3.43250       -0.34380        0.00000
C          2.71800        0.06880        0.00000
C          2.71800        0.89380        0.00000
C          3.43250        1.30630        0.00000
O          4.86150       -0.34380        0.00000
O          2.00360       -0.34370        0.00000
C          3.43250        2.13130        0.00000
C          3.43250       -1.16880        0.00000
C          4.14700       -1.58130        0.00000
O          2.71800       -1.58120        0.00000
