14
3-chloro-5-(ethanesulfinyl)thiophene-2,4-dicarbonitrile
S          1.23520        0.62940        0.00000
C          0.98030       -0.15530        0.00000
C          0.15530       -0.15530        0.00000
C         -0.09970        0.62940        0.00000
C          0.56780        1.11430        0.00000
C          1.46520       -0.82270        0.00000
N          1.95010       -1.49010        0.00000
C         -0.88430        0.88430        0.00000
N         -1.66890        1.13920        0.00000
S          0.56780        1.93930        0.00000
O         -0.14670        2.35180        0.00000
C          1.28220        2.35180        0.00000
C          1.28220        3.17680        0.00000
Cl        -0.32970       -0.82270        0.00000
