17
3-Hydroxycarbofuran
C          2.14340       -2.88750        0.00000
N          1.42890       -2.47500        0.00000
C          1.42890       -1.65000        0.00000
O          2.14340       -1.23750        0.00000
O          0.71450       -1.23750        0.00000
C          0.71450       -0.41250        0.00000
C          0.00000        0.00000        0.00000
O         -0.78460       -0.25490        0.00000
C         -1.26950        0.41250        0.00000
C         -1.88260       -0.13950        0.00000
C         -1.88260        0.96450        0.00000
C         -0.78460        1.07990        0.00000
O         -1.03960        1.86460        0.00000
C          0.00000        0.82500        0.00000
C          0.71450        1.23750        0.00000
C          1.42890        0.82500        0.00000
C          1.42890        0.00000        0.00000
