17
3-methoxy-6-phenyl-2,4-dioxa-5-aza-3-phosphahept-5-ene-7-nitrile 3-sulfide
C          2.85790        4.95000        0.00000
O          2.85790        4.12500        0.00000
P          2.14340        3.71250        0.00000
S          1.73090        4.42700        0.00000
O          2.55590        2.99800        0.00000
C          2.14340        2.28360        0.00000
O          1.42890        3.30000        0.00000
N          1.42890        2.47500        0.00000
C          0.71450        2.06250        0.00000
C          0.00000        2.47500        0.00000
N         -0.71450        2.88750        0.00000
C          0.71450        1.23750        0.00000
C          1.42890        0.82500        0.00000
C          1.42890        0.00000        0.00000
C          0.71450       -0.41250        0.00000
C          0.00000        0.00000        0.00000
C          0.00000        0.82500        0.00000
