27
4,5-dihydro-3-methoxy-4-methyl-5-oxo-N-[(2-trifluoromethoxy-phenyl)-sulphonyl]-1-H-1,2,4-triazole-1-carboxamide sodium salt
Na         0.00000        0.00000        0.00000
C          2.97690        4.13800        0.00000
O          3.69130        3.72550        0.00000
C          3.69130        2.90050        0.00000
N          4.35880        2.41560        0.00000
N          4.10380        1.63100        0.00000
C          4.58880        0.96360        0.00000
O          5.40920        1.04980        0.00000
N          4.25320        0.20990        0.00000
S          4.73810       -0.45760        0.00000
O          5.22310       -1.12500        0.00000
O          5.40560        0.02740        0.00000
C          4.07070       -0.94250        0.00000
C          4.15690       -1.76300        0.00000
O          4.91060       -2.09850        0.00000
C          4.99680       -2.91900        0.00000
F          5.08310       -3.73950        0.00000
F          4.17640       -3.00520        0.00000
F          5.81730       -2.83280        0.00000
C          3.48950       -2.24790        0.00000
C          2.73580       -1.91230        0.00000
C          2.64960       -1.09180        0.00000
C          3.31700       -0.60690        0.00000
C          3.27880        1.63100        0.00000
O          2.79390        0.96360        0.00000
N          3.02390        2.41560        0.00000
C          2.23930        2.67060        0.00000
