14
4,6-diamino-2-(cyclopropylamino)-5-pyrimidinecarbonitrile
N         -2.14340        6.31510        0.00000
C         -2.14340        5.49010        0.00000
N         -1.42890        5.07760        0.00000
C         -1.42890        4.25260        0.00000
N         -0.71450        3.84010        0.00000
C         -0.71450        3.01510        0.00000
C         -0.30200        2.30070        0.00000
C         -1.12700        2.30070        0.00000
N         -2.14340        3.84010        0.00000
C         -2.85790        4.25260        0.00000
N         -3.57240        3.84010        0.00000
C         -2.85790        5.07760        0.00000
C         -3.57240        5.49010        0.00000
N         -4.28680        5.90260        0.00000
