10
4,7-Methano-1H-indene
C         -0.02880       -0.73540        0.00000
C         -0.77620       -1.08480        0.00000
C         -0.67490       -1.90360        0.00000
C          0.13510       -2.06020        0.00000
C          0.53440       -1.33830        0.00000
C          1.14070       -0.94950        0.00000
C          1.93620       -1.41480        0.00000
C          1.64110       -2.04020        0.00000
C          0.91060       -1.66990        0.00000
C          0.98070       -0.13410        0.00000
