32
4-(2-chlorophenylhydrazono)-3-methyl- 1,2-oxazol-5(4H)-one 4-(2-chlorophenylhydrazono)-3- methylisoxazol-5(4H)-one
O         -0.87690       -2.70350        0.00000
N         -1.13180       -1.91890        0.00000
C         -0.46440       -1.43400        0.00000
C          0.20310       -1.91890        0.00000
C         -0.05190       -2.70350        0.00000
O          0.43310       -3.37100        0.00000
C         -0.86940       -0.71520        0.00000
N          0.98770       -1.66400        0.00000
N          1.15920       -0.85700        0.00000
C          1.94390       -0.60210        0.00000
C          2.11540        0.20490        0.00000
C          2.90000        0.45980        0.00000
C          3.51310       -0.09220        0.00000
C          3.34160       -0.89920        0.00000
C          2.55690       -1.15410        0.00000
Cl         1.50230        0.75690        0.00000
O          0.35310        0.55430        0.00000
N          0.60810       -0.23030        0.00000
C         -0.05940       -0.71520        0.00000
C         -0.72680       -0.23030        0.00000
C         -0.47190        0.55430        0.00000
O         -0.95680        1.22170        0.00000
C          0.34560       -1.43400        0.00000
N         -1.51140       -0.48530        0.00000
N         -1.68300       -1.29220        0.00000
C         -2.46760       -1.54720        0.00000
C         -2.63910       -2.35410        0.00000
C         -3.42370       -2.60910        0.00000
C         -4.03680       -2.05700        0.00000
C         -3.86530       -1.25010        0.00000
C         -3.08070       -0.99510        0.00000
Cl        -2.02600       -2.90620        0.00000
