21
4-[Hydroxy(methyl)phosphinoyl]-L-homoalanyl-L-alanyl-L-alanine
N          4.01450       -1.01640        0.00000
C          3.30000       -1.42890        0.00000
C          3.30000       -2.25390        0.00000
C          2.58550       -1.01640        0.00000
O          1.87110       -1.42890        0.00000
O          2.58550       -0.19140        0.00000
N          6.15790       -1.42890        0.00000
C          5.44340       -1.01640        0.00000
C          5.44340       -0.19140        0.00000
C          4.72890       -1.42890        0.00000
O          4.72890       -2.25390        0.00000
C          9.01580       -1.42890        0.00000
C          8.30130       -1.01640        0.00000
N          8.30130       -0.19140        0.00000
C          7.58680       -1.42890        0.00000
C          6.87240       -1.01640        0.00000
O          6.87240       -0.19140        0.00000
P          9.73020       -1.01640        0.00000
O         10.44470       -0.60390        0.00000
C         10.14270       -1.73090        0.00000
O          9.31770       -0.30200        0.00000
