14
4-amino-3-(4-chlorophenyl)butanoic acid
N          0.00000       -2.47500        0.00000
C          0.71450       -2.06250        0.00000
C          0.71450       -1.23750        0.00000
C          1.42890       -0.82500        0.00000
C          2.14340       -1.23750        0.00000
O          2.85790       -0.82500        0.00000
O          2.14340       -2.06250        0.00000
C          0.00000       -0.82500        0.00000
C         -0.71450       -1.23750        0.00000
C         -1.42890       -0.82500        0.00000
C         -1.42890        0.00000        0.00000
Cl        -2.14340        0.41250        0.00000
C         -0.71450        0.41250        0.00000
C          0.00000        0.00000        0.00000
