21
4-chloro-2-cyano-N,N-dimethyl-5-(4-methylphenyl)-1H-imidazole-1-sulfonamide
C          1.42890        0.82500        0.00000
N          0.71450        0.41250        0.00000
C          0.00000        0.82500        0.00000
S          0.71450       -0.41250        0.00000
O         -0.11050       -0.41250        0.00000
O          1.53950       -0.41250        0.00000
N          0.71450       -1.23750        0.00000
C          1.38190       -1.72240        0.00000
N          1.12700       -2.50700        0.00000
C          0.30200       -2.50700        0.00000
Cl        -0.18300       -3.17450        0.00000
C          0.04700       -1.72240        0.00000
C         -0.73760       -1.46750        0.00000
C         -1.35070       -2.01950        0.00000
C         -2.13530       -1.76460        0.00000
C         -2.30680       -0.95760        0.00000
C         -3.09150       -0.70270        0.00000
C         -1.69370       -0.40560        0.00000
C         -0.90910       -0.66050        0.00000
C          2.16650       -1.46750        0.00000
N          2.95120       -1.21250        0.00000
