15
4-dichloroacetyl-1-oxa-4-azaspiro[4.5]decane
Cl         0.74250       -2.43730        0.00000
C          0.48750       -1.65270        0.00000
Cl        -0.31940       -1.48110        0.00000
C          1.03960       -1.03960        0.00000
O          1.84650       -1.21110        0.00000
N          0.78460       -0.25490        0.00000
C          0.00000        0.00000        0.00000
C          0.00000        0.82500        0.00000
O          0.78460        1.07990        0.00000
C          1.26950        0.41250        0.00000
C          1.68200        1.12700        0.00000
C          2.50700        1.12700        0.00000
C          2.91950        0.41250        0.00000
C          2.50700       -0.30200        0.00000
C          1.68200       -0.30200        0.00000
