25
4-pentenyl 2-[(2-furanylmethyl)(1H-imidazol-1-ylcarbonyl)amino]butanoate
C         -0.19180       -1.34370        0.00000
C          0.22070       -0.62920        0.00000
C          1.04570       -0.62920        0.00000
C          1.45820        0.08530        0.00000
C          2.28320        0.08530        0.00000
C          2.69570        0.79970        0.00000
C          3.52070        0.79970        0.00000
C          3.93320        1.51420        0.00000
N          4.75820        1.51420        0.00000
C          5.17070        2.22870        0.00000
C          5.99570        2.22870        0.00000
C          6.48060        2.89610        0.00000
C          7.26520        2.64120        0.00000
C          7.26520        1.81620        0.00000
O          6.48060        1.56120        0.00000
C          5.17070        0.79970        0.00000
O          5.99570        0.79970        0.00000
N          4.75820        0.08530        0.00000
C          5.09370       -0.66840        0.00000
C          4.48060       -1.22050        0.00000
N          3.76620       -0.80800        0.00000
C          3.93770       -0.00100        0.00000
C          3.52070        2.22870        0.00000
O          3.93320        2.94310        0.00000
O          2.69570        2.22870        0.00000
