20
5,7-dichloro-4-(4-fluorophenoxy)quinoline
F         -2.85790        2.47500        0.00000
C         -2.14340        2.06250        0.00000
C         -1.42890        2.47500        0.00000
C         -0.71450        2.06250        0.00000
C         -0.71450        1.23750        0.00000
O          0.00000        0.82500        0.00000
C          0.00000        0.00000        0.00000
C         -0.71450       -0.41250        0.00000
C         -0.71450       -1.23750        0.00000
N          0.00000       -1.65000        0.00000
C          0.71450       -1.23750        0.00000
C          0.71450       -0.41250        0.00000
C          1.42890        0.00000        0.00000
Cl         1.42890        0.82500        0.00000
C          2.14340       -0.41250        0.00000
C          2.14340       -1.23750        0.00000
Cl         2.85790       -1.65000        0.00000
C          1.42890       -1.65000        0.00000
C         -1.42890        0.82500        0.00000
C         -2.14340        1.23750        0.00000
