22
5-(4-bromo-1-methyl-5-trifluoromethyl-1H-pyrazol-3-yl)-2-chloro-4-fluoro-benzoate
C          0.71450       -0.41250        0.00000
N          0.71450       -1.23750        0.00000
N          1.38190       -1.72240        0.00000
C          1.12700       -2.50700        0.00000
C          0.30200       -2.50700        0.00000
Br        -0.18300       -3.17450        0.00000
C          0.04700       -1.72240        0.00000
C         -0.73760       -1.46750        0.00000
F         -1.52220       -1.21250        0.00000
F         -0.99250       -2.25210        0.00000
F         -0.48270       -0.68290        0.00000
C          1.61190       -3.17450        0.00000
C          2.43240       -3.08820        0.00000
C          2.91730       -3.75570        0.00000
C          3.73780       -3.66950        0.00000
O          4.07330       -2.91580        0.00000
O          4.22270       -4.33690        0.00000
C          2.58170       -4.50940        0.00000
Cl         3.06670       -5.17680        0.00000
C          1.76130       -4.59560        0.00000
C          1.27630       -3.92820        0.00000
F          0.45590       -4.01440        0.00000
