24
5-(4-chlorophenyl)-2,3-diphenylthiophene
Cl         0.71450        2.06250        0.00000
C          0.71450        1.23750        0.00000
C          1.42890        0.82500        0.00000
C          1.42890        0.00000        0.00000
C          0.71450       -0.41250        0.00000
C          0.00000        0.00000        0.00000
C          0.00000        0.82500        0.00000
C          0.71450       -1.23750        0.00000
C          1.38190       -1.72240        0.00000
C          1.12700       -2.50700        0.00000
C          0.30200       -2.50700        0.00000
S          0.04700       -1.72240        0.00000
C         -0.18300       -3.17450        0.00000
C          0.15260       -3.92820        0.00000
C         -0.33230       -4.59560        0.00000
C         -1.15280       -4.50940        0.00000
C         -1.48840       -3.75570        0.00000
C         -1.00340       -3.08820        0.00000
C          1.61190       -3.17450        0.00000
C          2.43240       -3.08820        0.00000
C          2.91730       -3.75570        0.00000
C          2.58170       -4.50940        0.00000
C          1.76130       -4.59560        0.00000
C          1.27630       -3.92820        0.00000
