16
5-methoxy-3-(2-methoxyphenyl)-1,3,4- oxadiazol-2(3H)-one
O          1.38190       -1.72240        0.00000
C          1.12700       -2.50700        0.00000
N          0.30200       -2.50700        0.00000
N          0.04700       -1.72240        0.00000
C          0.71450       -1.23750        0.00000
O          1.61190       -3.17450        0.00000
C         -0.18300       -3.17450        0.00000
C          0.15260       -3.92820        0.00000
C         -0.33230       -4.59560        0.00000
C         -1.15280       -4.50940        0.00000
C         -1.48840       -3.75570        0.00000
C         -1.00340       -3.08820        0.00000
O          0.97310       -4.01440        0.00000
C          1.30860       -4.76810        0.00000
O          0.71450       -0.41250        0.00000
C          0.00000        0.00000        0.00000
