25
[3-(4,5-dihydro-3-isoxazolyl)-2-methyl-4-methylsulphonylphenyl]-(5-hydroxy-1-methyl-1H-pyrazol-4-yl)methanone
C          2.03670       -0.47410        0.00000
N          2.03670       -1.29910        0.00000
N          2.70410       -1.78400        0.00000
C          2.44920       -2.56870        0.00000
C          1.62420       -2.56870        0.00000
C          1.13930       -3.23610        0.00000
O          1.47480       -3.98980        0.00000
C          0.31880       -3.14990        0.00000
C         -0.16610       -3.81730        0.00000
C          0.16940       -4.57100        0.00000
C         -0.98660       -3.73110        0.00000
C         -1.47150       -4.39850        0.00000
N         -1.21660       -5.18310        0.00000
O         -1.88400       -5.66800        0.00000
C         -2.55150       -5.18310        0.00000
C         -2.29650       -4.39850        0.00000
C         -1.32220       -2.97740        0.00000
C         -0.83720       -2.30990        0.00000
C         -0.01680       -2.39620        0.00000
S         -2.14260       -2.89110        0.00000
C         -2.96310       -2.80490        0.00000
O         -2.05640       -2.07070        0.00000
O         -2.22890       -3.71160        0.00000
C          1.36930       -1.78400        0.00000
O          0.58460       -1.52910        0.00000
