17
[[(dimethylamino)methylene]amino]phenylmethylcarbamate hydrochloride, m-
N         -1.16100        1.80470        0.00000
C         -1.16100        2.62970        0.00000
O         -1.87550        3.04220        0.00000
O         -0.44650        3.04220        0.00000
Cl         4.65060        0.00000        0.00000
C         -0.44650        1.39220        0.00000
C         -0.44650        0.56720        0.00000
C          0.26790        0.15470        0.00000
C          0.26790       -0.67030        0.00000
C         -0.44650       -1.08280        0.00000
C         -1.16100       -0.67030        0.00000
C         -1.16100        0.15470        0.00000
N          0.98240       -1.08280        0.00000
C          0.98240       -1.90780        0.00000
N          1.69690       -2.32030        0.00000
C          2.41130       -1.90780        0.00000
C          1.69690       -3.14530        0.00000
