28
acequinocyl
C         -9.28810       -1.23750        0.00000
C         -8.57370       -1.65000        0.00000
C         -7.85920       -1.23750        0.00000
C         -7.14470       -1.65000        0.00000
C         -6.43020       -1.23750        0.00000
C         -5.71580       -1.65000        0.00000
C         -5.00130       -1.23750        0.00000
C         -4.28680       -1.65000        0.00000
C         -3.57240       -1.23750        0.00000
C         -2.85790       -1.65000        0.00000
C         -2.14340       -1.23750        0.00000
C         -1.42890       -1.65000        0.00000
C         -0.71450       -1.23750        0.00000
C          0.00000       -1.65000        0.00000
O          0.00000       -2.47500        0.00000
C          0.71450       -2.88750        0.00000
C          1.42890       -2.47500        0.00000
O          0.71450       -3.71250        0.00000
C          0.71450       -1.23750        0.00000
O          1.42890       -1.65000        0.00000
C          0.71450       -0.41250        0.00000
C          0.00000        0.00000        0.00000
C          0.00000        0.82500        0.00000
C          0.71450        1.23750        0.00000
C          1.42890        0.82500        0.00000
C          1.42890        0.00000        0.00000
C         -0.71450       -0.41250        0.00000
O         -1.42890        0.00000        0.00000
