26
acetic acid-2-heptadecyl-2-imidazoline
N         -3.60370        0.18620        0.00000
C         -2.85010       -0.14940        0.00000
N         -2.93630       -0.96980        0.00000
C         -3.74330       -1.14140        0.00000
C         -4.15580       -0.42690        0.00000
C         -2.13560        0.26310        0.00000
C         -1.42110       -0.14940        0.00000
C         -0.70660        0.26310        0.00000
C          0.00780       -0.14940        0.00000
C          0.72230        0.26310        0.00000
C          1.43680       -0.14940        0.00000
C          2.15120        0.26310        0.00000
C          2.86570       -0.14940        0.00000
C          3.58020        0.26310        0.00000
C          4.29470       -0.14940        0.00000
C          5.00910        0.26310        0.00000
C          5.72360       -0.14940        0.00000
C          6.43810        0.26310        0.00000
C          7.15250       -0.14940        0.00000
C          7.86700        0.26310        0.00000
C          8.58150       -0.14940        0.00000
C          9.29600        0.26310        0.00000
C         -3.77530        0.99320        0.00000
C         -3.16220        1.54520        0.00000
O         -3.33370        2.35220        0.00000
O         -2.37750        1.29030        0.00000
