20
acrylate piperonyl butoxide
C          2.14340       -1.23750        0.00000
O          1.42890       -0.82500        0.00000
O          2.14340       -2.06250        0.00000
C          2.85790       -0.82500        0.00000
C          2.85790        0.00000        0.00000
C          0.71450       -1.23750        0.00000
C          0.00000       -0.82500        0.00000
C         -0.71450       -1.23750        0.00000
C         -1.42890       -0.82500        0.00000
C         -1.42890        0.00000        0.00000
O         -2.04200        0.55200        0.00000
C         -1.70650        1.30570        0.00000
O         -0.88600        1.21950        0.00000
C         -0.71450        0.41250        0.00000
C          0.00000        0.00000        0.00000
C          3.57240       -1.23750        0.00000
C          4.28680       -0.82500        0.00000
C          5.00130       -1.23750        0.00000
C          5.71580       -0.82500        0.00000
O          3.57240       -2.06250        0.00000
