26
alanycarb
C          2.85790       -1.65000        0.00000
C          3.57240       -1.23750        0.00000
O          4.28680       -1.65000        0.00000
C          4.28680       -2.47500        0.00000
O          3.57240       -2.88750        0.00000
C          5.00130       -2.88750        0.00000
C          5.00130       -3.71250        0.00000
N          5.71580       -4.12500        0.00000
C          5.71580       -4.95000        0.00000
C          5.00130       -5.36250        0.00000
C          5.00130       -6.18750        0.00000
C          4.28680       -6.60000        0.00000
C          3.57240       -6.18750        0.00000
C          3.57240       -5.36250        0.00000
C          4.28680       -4.95000        0.00000
S          6.43020       -3.71250        0.00000
N          6.43020       -2.88750        0.00000
C          5.71580       -2.47500        0.00000
C          7.14470       -2.47500        0.00000
O          7.85920       -2.88750        0.00000
O          7.14470       -1.65000        0.00000
N          6.43020       -1.23750        0.00000
C          6.43020       -0.41250        0.00000
C          5.71580        0.00000        0.00000
S          7.14470        0.00000        0.00000
C          7.14470        0.82500        0.00000
