26
ALLY
C          0.00000       -0.82500        0.00000
O          0.00000       -1.65000        0.00000
C         -0.71450       -2.06250        0.00000
O         -1.42890       -1.65000        0.00000
C         -0.71450       -2.88750        0.00000
C          0.00000       -3.30000        0.00000
C          0.00000       -4.12500        0.00000
C         -0.71450       -4.53750        0.00000
C         -1.42890       -4.12500        0.00000
C         -1.42890       -3.30000        0.00000
S         -2.14340       -2.88750        0.00000
O         -1.73090       -2.17300        0.00000
O         -2.55590       -3.60200        0.00000
N         -2.85790       -2.47500        0.00000
C         -3.57240       -2.88750        0.00000
O         -4.28680       -2.47500        0.00000
N         -3.57240       -3.71250        0.00000
C         -4.28680       -4.12500        0.00000
N         -4.28680       -4.95000        0.00000
C         -5.00130       -5.36250        0.00000
O         -5.00130       -6.18750        0.00000
C         -4.28680       -6.60000        0.00000
N         -5.71580       -4.95000        0.00000
C         -5.71580       -4.12500        0.00000
C         -6.43020       -3.71250        0.00000
N         -5.00130       -3.71250        0.00000
