22
aminoethoxyvinylglycine 2-amino-4-(2-aminoethoxy)3-butenoic acid hydrochloride, (S)-trans-
C         -1.53100        0.01960        0.00000
C         -2.24550       -0.39290        0.00000
C         -2.96000        0.01960        0.00000
C         -0.81650       -0.39290        0.00000
O         -0.81650       -1.21790        0.00000
Cl         7.13850        0.00000        0.00000
O         -3.67440       -0.39290        0.00000
C         -4.38890        0.01960        0.00000
C         -5.10340       -0.39290        0.00000
N         -5.81780        0.01960        0.00000
N         -1.53100        0.84460        0.00000
N          2.04130       -0.39290        0.00000
C          1.32690        0.01960        0.00000
C          0.61240       -0.39290        0.00000
O         -0.10210        0.01960        0.00000
O          0.61240       -1.21790        0.00000
C          2.75580        0.01960        0.00000
C          3.47030       -0.39290        0.00000
O          4.18480        0.01960        0.00000
C          4.18480        0.84460        0.00000
C          4.89920        1.25710        0.00000
N          4.89920        2.08210        0.00000
