8
aminoethyl phosphorodithioate
P          2.47500       -1.42890        0.00000
S          2.06250       -0.71450        0.00000
O          2.88750       -2.14340        0.00000
O          3.18950       -1.01640        0.00000
S          1.76050       -1.84140        0.00000
C          1.23750       -0.71450        0.00000
C          0.82500        0.00000        0.00000
N          0.00000        0.00000        0.00000
