7
ammonium sulphamate ammonium
N          0.00000       -0.82500        0.00000
S          0.00000        0.00000        0.00000
O          0.00000        0.82500        0.00000
O          0.82500        0.00000        0.00000
O         -0.82500        0.00000        0.00000
N          3.18210        0.00000        0.00000
N          0.00000       -2.47500        0.00000
