16
Anilazine
Cl         2.14340       -0.41250        0.00000
C          2.14340       -1.23750        0.00000
N          2.85790       -1.65000        0.00000
C          2.85790       -2.47500        0.00000
N          3.57240       -2.88750        0.00000
C          3.57240       -3.71250        0.00000
C          4.28680       -4.12500        0.00000
Cl         5.00130       -3.71250        0.00000
C          4.28680       -4.95000        0.00000
C          3.57240       -5.36250        0.00000
C          2.85790       -4.95000        0.00000
C          2.85790       -4.12500        0.00000
N          2.14340       -2.88750        0.00000
C          1.42890       -2.47500        0.00000
Cl         0.71450       -2.88750        0.00000
N          1.42890       -1.65000        0.00000
