13
antimony potassium tartrate potassium
O         -1.78620       -0.20620        0.00000
C         -1.07170        0.20630        0.00000
O         -1.07170        1.03130        0.00000
C         -0.35720       -0.20620        0.00000
O         -0.35720       -1.03120        0.00000
C          0.35720        0.20630        0.00000
O          0.35720        1.03130        0.00000
C          1.07170       -0.20630        0.00000
O          1.78620        0.20620        0.00000
O          1.07170       -1.03130        0.00000
K          3.90760        0.00000        0.00000
Sb         0.00000       -2.68130        0.00000
K          2.12140       -2.68130        0.00000
