11
arsenate lead arsenate (1:1)
O          0.00000       -0.82500        0.00000
As         0.00000        0.00000        0.00000
O          0.00000        0.82500        0.00000
O          0.82500        0.00000        0.00000
O         -0.82500        0.00000        0.00000
Pb         2.94640        0.00000        0.00000
O          0.00000       -4.12500        0.00000
As         0.00000       -3.30000        0.00000
O          0.00000       -2.47500        0.00000
O          0.82500       -3.30000        0.00000
O         -0.82500       -3.30000        0.00000
