61
avermectin B1b
C          9.89990       -8.53360        0.00000
O         10.01300       -7.71640        0.00000
C          9.36190       -7.20980        0.00000
C          9.47500       -6.39260        0.00000
C          8.82390       -5.88600        0.00000
O          8.93700       -5.06880        0.00000
C          8.28580       -4.56220        0.00000
C          7.52160       -4.87280        0.00000
C          7.40840       -5.69000        0.00000
O          6.87040       -4.36620        0.00000
C          6.98350       -3.54900        0.00000
C          7.74780       -3.23840        0.00000
C          8.39900       -3.74500        0.00000
O          9.16330       -3.43440        0.00000
C          9.81440       -3.94100        0.00000
O          6.33240       -3.04250        0.00000
C          6.44550       -2.22520        0.00000
C          5.79440       -1.71870        0.00000
C          5.03010       -2.02930        0.00000
C          5.90750       -0.90150        0.00000
C          5.25640       -0.39490        0.00000
C          5.36950        0.42230        0.00000
C          4.71840        0.92890        0.00000
C          3.89550        0.86970        0.00000
O          3.58490        1.63400        0.00000
C          4.21580        2.16560        0.00000
C          4.24290        2.99010        0.00000
O          3.54230        3.42590        0.00000
C          4.97050        3.37890        0.00000
C          4.99760        4.20350        0.00000
C          5.67100        2.94320        0.00000
C          5.59580        2.05670        0.00000
C          6.24690        1.55020        0.00000
O          6.13380        0.73300        0.00000
O          7.01120        1.86080        0.00000
C          7.66240        1.35420        0.00000
C          7.54920        0.53700        0.00000
C          8.20040        0.03040        0.00000
C          8.08730       -0.78680        0.00000
C          7.32300       -1.09740        0.00000
C          7.20980       -1.91460        0.00000
C          7.86100       -2.42120        0.00000
O          8.96470        0.34100        0.00000
C          9.07780        1.15820        0.00000
C          8.42670        1.66480        0.00000
O          9.19100        1.97540        0.00000
C          9.95530        2.28610        0.00000
C         10.06840        3.10330        0.00000
C         10.83270        3.41390        0.00000
C          9.41720        3.60980        0.00000
C         10.60640        1.77950        0.00000
C         11.37070        2.09010        0.00000
C         10.49330        0.96230        0.00000
C          9.72900        0.65160        0.00000
C          4.83150        1.74610        0.00000
O          4.91880        2.56650        0.00000
O          8.05960       -6.19660        0.00000
C          7.94640       -7.01380        0.00000
C          7.18210       -7.32440        0.00000
C          8.59760       -7.52040        0.00000
O          8.48440       -8.33760        0.00000
