62
avermectin B1a
C         12.55990        0.25970        0.00000
C         11.90870        0.76630        0.00000
C         11.14440        0.45570        0.00000
C         11.03130       -0.36150        0.00000
C         10.49330        0.96230        0.00000
O          9.72900        0.65160        0.00000
C          9.07780        1.15820        0.00000
C          8.42670        1.66480        0.00000
C          7.66240        1.35420        0.00000
C          7.54920        0.53700        0.00000
C          8.20040        0.03040        0.00000
C          8.08730       -0.78680        0.00000
C          7.32300       -1.09740        0.00000
C          7.20980       -1.91460        0.00000
C          7.86100       -2.42120        0.00000
C          6.44550       -2.22520        0.00000
O          6.33240       -3.04250        0.00000
C          5.56810       -3.35310        0.00000
C          5.45500       -4.17030        0.00000
C          4.69070       -4.48090        0.00000
O          4.57750       -5.29810        0.00000
C          3.81320       -5.60870        0.00000
C          4.03950       -3.97430        0.00000
O          3.27520       -4.28490        0.00000
C          2.62410       -3.77840        0.00000
C          1.85980       -4.08900        0.00000
C          1.20860       -3.58240        0.00000
O          0.44440       -3.89300        0.00000
C          0.33120       -4.71020        0.00000
C          1.32180       -2.76520        0.00000
O          0.67060       -2.25860        0.00000
C          2.08610       -2.45460        0.00000
C          2.19920       -1.63740        0.00000
O          2.73720       -2.96110        0.00000
C          4.15270       -3.15710        0.00000
C          3.50150       -2.65050        0.00000
O          4.91700       -2.84650        0.00000
C          5.79440       -1.71870        0.00000
C          5.03010       -2.02930        0.00000
C          5.90750       -0.90150        0.00000
C          5.25640       -0.39490        0.00000
C          5.36950        0.42230        0.00000
C          4.71840        0.92890        0.00000
C          3.89550        0.86970        0.00000
O          3.58490        1.63400        0.00000
C          4.21580        2.16560        0.00000
C          4.24290        2.99010        0.00000
O          3.54230        3.42590        0.00000
C          4.97050        3.37890        0.00000
C          4.99760        4.20350        0.00000
C          5.67100        2.94320        0.00000
C          5.59580        2.05670        0.00000
C          6.24690        1.55020        0.00000
O          6.13380        0.73300        0.00000
O          7.01120        1.86080        0.00000
C          4.83150        1.74610        0.00000
O          4.91880        2.56650        0.00000
O          8.96470        0.34100        0.00000
C          9.19100        1.97540        0.00000
C          9.95530        2.28610        0.00000
C         10.60640        1.77950        0.00000
C         11.37070        2.09010        0.00000
