29
Azimsulfuron
C          1.32220        4.06340        0.00000
O          2.03670        3.65090        0.00000
C          2.75120        4.06340        0.00000
C          2.75120        4.88840        0.00000
C          3.46560        5.30090        0.00000
O          3.46560        6.12590        0.00000
C          4.18010        6.53840        0.00000
N          4.18010        4.88840        0.00000
C          4.18010        4.06340        0.00000
N          4.89460        3.65090        0.00000
C          4.89460        2.82590        0.00000
O          4.18010        2.41340        0.00000
N          5.60910        2.41340        0.00000
S          5.60910        1.58840        0.00000
O          4.78410        1.58840        0.00000
O          6.43410        1.58840        0.00000
C          5.60910        0.76340        0.00000
C          6.27650        0.27850        0.00000
C          6.02160       -0.50620        0.00000
N          5.19660       -0.50620        0.00000
N          4.94160        0.27850        0.00000
C          4.15700        0.53340        0.00000
C          7.06110        0.53340        0.00000
N          7.31610        1.31800        0.00000
N          8.14110        1.31800        0.00000
C          8.62600        1.98550        0.00000
N          8.39600        0.53340        0.00000
N          7.72860        0.04850        0.00000
N          3.46560        3.65090        0.00000
