26
bensultap
C          3.57240       -2.06250        0.00000
N          4.28680       -1.65000        0.00000
C          4.28680       -0.82500        0.00000
C          5.00130       -2.06250        0.00000
C          5.00130       -2.88750        0.00000
S          4.28680       -3.30000        0.00000
S          4.28680       -4.12500        0.00000
O          5.11180       -4.12500        0.00000
O          3.46180       -4.12500        0.00000
C          4.28680       -4.95000        0.00000
C          5.00130       -5.36250        0.00000
C          5.00130       -6.18750        0.00000
C          4.28680       -6.60000        0.00000
C          3.57240       -6.18750        0.00000
C          3.57240       -5.36250        0.00000
C          5.71580       -1.65000        0.00000
S          5.71580       -0.82500        0.00000
S          6.43020       -0.41250        0.00000
O          6.84270       -1.12700        0.00000
O          6.01770        0.30200        0.00000
C          7.14470        0.00000        0.00000
C          7.14470        0.82500        0.00000
C          7.85920        1.23750        0.00000
C          8.57370        0.82500        0.00000
C          8.57370        0.00000        0.00000
C          7.85920       -0.41250        0.00000
