12
benzodioxathiepin 3-oxide
C          1.92060       -0.70660        0.00000
O          2.56560       -0.19230        0.00000
O          3.37000       -0.37580        0.00000
S          3.72790       -1.11910        0.00000
C          3.37000       -1.86240        0.00000
C          2.56560       -2.04600        0.00000
C          1.92060       -1.53160        0.00000
C          1.20620       -1.94410        0.00000
C          0.49170       -1.53160        0.00000
C          0.49170       -0.70660        0.00000
C          1.20620       -0.29410        0.00000
O          4.55290       -1.11910        0.00000
