25
bitertanol
C          0.60780       -2.24730        0.00000
C          1.32220       -1.83480        0.00000
C          1.73470       -2.54930        0.00000
C          0.90970       -1.12030        0.00000
C          2.03670       -1.42230        0.00000
O          2.03670       -0.59730        0.00000
C          2.75120       -1.83480        0.00000
O          3.46560       -1.42230        0.00000
C          4.18010       -1.83480        0.00000
C          4.89460       -1.42230        0.00000
C          5.60910       -1.83480        0.00000
C          5.60910       -2.65980        0.00000
C          4.89460       -3.07230        0.00000
C          4.18010       -2.65980        0.00000
C          6.32350       -3.07230        0.00000
C          7.03800       -2.65980        0.00000
C          7.75250       -3.07230        0.00000
C          7.75250       -3.89730        0.00000
C          7.03800       -4.30980        0.00000
C          6.32350       -3.89730        0.00000
N          2.75120       -2.65980        0.00000
C          3.41860       -3.14470        0.00000
N          3.16370       -3.92940        0.00000
C          2.33870       -3.92940        0.00000
N          2.08370       -3.14470        0.00000
