20
bromuconazole
Cl         2.45300        5.73820        0.00000
C          1.90100        5.12510        0.00000
C          2.15590        4.34050        0.00000
C          1.60390        3.72740        0.00000
Cl         1.85880        2.94280        0.00000
C          0.79690        3.89890        0.00000
C          0.54200        4.68350        0.00000
C          1.09400        5.29660        0.00000
C          0.24490        3.28580        0.00000
C         -0.30710        3.89890        0.00000
N         -1.11410        3.72740        0.00000
C         -1.72720        4.27940        0.00000
N         -2.44170        3.86690        0.00000
C         -2.27020        3.05990        0.00000
N         -1.44970        2.97370        0.00000
C          0.91230        2.80090        0.00000
C          0.65740        2.01630        0.00000
Br         1.14230        1.34880        0.00000
C         -0.16760        2.01630        0.00000
O         -0.42260        2.80090        0.00000
