24
bromofenoxim
O          2.85790       -1.65000        0.00000
C          2.85790       -2.47500        0.00000
C          3.57240       -2.88750        0.00000
Br         4.28680       -2.47500        0.00000
C          3.57240       -3.71250        0.00000
C          2.85790       -4.12500        0.00000
C          2.85790       -4.95000        0.00000
N          2.14340       -5.36250        0.00000
O          2.14340       -6.18750        0.00000
C          1.42890       -6.60000        0.00000
C          1.42890       -7.42500        0.00000
C          0.71450       -7.83750        0.00000
C          0.00000       -7.42500        0.00000
C          0.00000       -6.60000        0.00000
C          0.71450       -6.18750        0.00000
N          0.71450       -5.36250        0.00000
O          1.42890       -4.95000        0.00000
O          0.00000       -4.95000        0.00000
N         -0.71450       -7.83750        0.00000
O         -0.71450       -8.66250        0.00000
O         -1.42890       -7.42500        0.00000
C          2.14340       -3.71250        0.00000
C          2.14340       -2.88750        0.00000
Br         1.42890       -2.47500        0.00000
