21
butamifos
C          1.01640        4.61840        0.00000
C          1.42890        3.90390        0.00000
O          1.01640        3.18950        0.00000
P          1.42890        2.47500        0.00000
S          2.14340        2.88750        0.00000
N          1.84140        1.76050        0.00000
C          2.66640        1.76050        0.00000
C          3.07890        1.04610        0.00000
C          3.07890        2.47500        0.00000
C          3.90390        2.47500        0.00000
O          0.71450        2.06250        0.00000
C          0.71450        1.23750        0.00000
C          1.42890        0.82500        0.00000
C          1.42890        0.00000        0.00000
C          2.14340       -0.41250        0.00000
C          0.71450       -0.41250        0.00000
C          0.00000        0.00000        0.00000
C          0.00000        0.82500        0.00000
N         -0.71450        1.23750        0.00000
O         -0.71450        2.06250        0.00000
O         -1.42890        0.82500        0.00000
