25
buthiobate
C         -0.71450       -3.71250        0.00000
C          0.00000       -3.30000        0.00000
C          0.71450       -3.71250        0.00000
C          1.42890       -3.30000        0.00000
S          2.14340       -3.71250        0.00000
C          2.85790       -3.30000        0.00000
S          3.57240       -3.71250        0.00000
C          4.28680       -3.30000        0.00000
C          5.00130       -3.71250        0.00000
C          5.71580       -3.30000        0.00000
C          6.43020       -3.71250        0.00000
C          6.43020       -4.53750        0.00000
C          5.71580       -4.95000        0.00000
C          5.00130       -4.53750        0.00000
C          7.14470       -4.95000        0.00000
C          7.85920       -5.36250        0.00000
C          6.73220       -5.66450        0.00000
C          7.55720       -4.23550        0.00000
N          2.85790       -2.47500        0.00000
C          3.57240       -2.06250        0.00000
C          3.57240       -1.23750        0.00000
C          4.28680       -0.82500        0.00000
C          5.00130       -1.23750        0.00000
N          5.00130       -2.06250        0.00000
C          4.28680       -2.47500        0.00000
