15
butyl(4-(1,1-dimethylethyl)phenyl)methyl
C         -0.71450       -1.23750        0.00000
C         -1.42890       -1.65000        0.00000
C         -1.42890       -2.47500        0.00000
C         -2.14340       -2.88750        0.00000
C         -2.85790       -2.47500        0.00000
C         -2.85790       -1.65000        0.00000
C         -2.14340       -1.23750        0.00000
C         -3.57240       -2.88750        0.00000
C         -4.28680       -3.30000        0.00000
C         -3.15990       -3.60200        0.00000
C         -3.98490       -2.17300        0.00000
C          0.00000       -1.65000        0.00000
C          0.71450       -1.23750        0.00000
C          1.42890       -1.65000        0.00000
C          2.14340       -1.23750        0.00000
