8
C3H10NO3P
C         -0.60390       -2.47500        0.00000
N          0.11050       -2.06250        0.00000
C          0.11050       -1.23750        0.00000
C          0.82500       -0.82500        0.00000
P          0.82500        0.00000        0.00000
O          0.82500        0.82500        0.00000
O          1.65000        0.00000        0.00000
O          0.00000        0.00000        0.00000
