37
calcium salt (2:3) calcium arsenate (3:2)
Ca         0.00000        0.00000        0.00000
Ca         1.11960        0.00000        0.00000
Ca         2.23930        0.00000        0.00000
Ca         3.35890        0.00000        0.00000
Ca         0.00000       -2.47500        0.00000
O          2.82860       -3.30000        0.00000
As         2.82860       -2.47500        0.00000
O          2.82860       -1.65000        0.00000
O          3.65360       -2.47500        0.00000
O          2.00360       -2.47500        0.00000
O          6.48210       -3.30000        0.00000
As         6.48210       -2.47500        0.00000
O          6.48210       -1.65000        0.00000
O          7.30710       -2.47500        0.00000
O          5.65710       -2.47500        0.00000
O         10.13570       -3.30000        0.00000
As        10.13570       -2.47500        0.00000
O         10.13570       -1.65000        0.00000
O         10.96070       -2.47500        0.00000
O          9.31070       -2.47500        0.00000
Ca         0.00000       -5.77500        0.00000
Ca         1.11960       -5.77500        0.00000
O          3.94820       -6.60000        0.00000
As         3.94820       -5.77500        0.00000
O          3.94820       -4.95000        0.00000
O          4.77320       -5.77500        0.00000
O          3.12320       -5.77500        0.00000
O          7.60180       -6.60000        0.00000
As         7.60180       -5.77500        0.00000
O          7.60180       -4.95000        0.00000
O          8.42680       -5.77500        0.00000
O          6.77680       -5.77500        0.00000
O          0.00000       -9.90000        0.00000
As         0.00000       -9.07500        0.00000
O          0.00000       -8.25000        0.00000
O          0.82500       -9.07500        0.00000
O         -0.82500       -9.07500        0.00000
