6
Calcium arsenate
O          0.00000       -0.82500        0.00000
As         0.00000        0.00000        0.00000
O          0.00000        0.82500        0.00000
O          0.82500        0.00000        0.00000
O         -0.82500        0.00000        0.00000
Ca         3.18210        0.00000        0.00000
