10
Camphene
C          0.25220       -2.87680        0.00000
C          0.13510       -2.06020        0.00000
C         -0.67640       -1.91140        0.00000
C          0.91060       -1.66990        0.00000
C          1.64110       -2.04020        0.00000
C          1.93620       -1.41480        0.00000
C          1.14070       -0.94950        0.00000
C          0.98070       -0.13410        0.00000
C          0.50040       -1.39970        0.00000
C         -0.11350       -0.84860        0.00000
