24
carbanilate phenothiazine
O          0.71450        2.06250        0.00000
C          0.00000        2.47500        0.00000
O         -0.71450        2.06250        0.00000
N          0.00000        3.30000        0.00000
C         -0.71450        3.71250        0.00000
C         -1.42890        3.30000        0.00000
C         -2.14340        3.71250        0.00000
C         -2.14340        4.53750        0.00000
C         -1.42890        4.95000        0.00000
C         -0.71450        4.53750        0.00000
N          2.14340        1.23750        0.00000
C          2.85790        0.82500        0.00000
C          3.57240        1.23750        0.00000
C          4.28680        0.82500        0.00000
C          4.28680        0.00000        0.00000
C          3.57240       -0.41250        0.00000
C          2.85790        0.00000        0.00000
S          2.14340       -0.41250        0.00000
C          1.42890        0.00000        0.00000
C          0.71450       -0.41250        0.00000
C          0.00000        0.00000        0.00000
C          0.00000        0.82500        0.00000
C          0.71450        1.23750        0.00000
C          1.42890        0.82500        0.00000
