16
carbonylaminosulfonyl-3-chloro-1-methyl-1H- pyrazole-4-carboxylate
N          0.56780        1.11430        0.00000
N          1.23520        0.62940        0.00000
C          0.98030       -0.15530        0.00000
C          0.15530       -0.15530        0.00000
C         -0.09970        0.62940        0.00000
C         -0.32970       -0.82270        0.00000
O          0.00590       -1.57640        0.00000
O         -1.15010       -0.73650        0.00000
C          0.56780        1.93930        0.00000
Cl         1.46520       -0.82270        0.00000
S         -0.88430        0.88430        0.00000
O         -0.62940        1.66890        0.00000
O         -1.13920        0.09970        0.00000
N         -1.66890        1.13920        0.00000
C         -1.84050        1.94620        0.00000
O         -2.62510        2.20120        0.00000
