26
carfentrazone-ethyl
C          1.42890       -4.12500        0.00000
C          2.14340       -3.71250        0.00000
O          2.85790       -4.12500        0.00000
C          3.57240       -3.71250        0.00000
O          3.57240       -2.88750        0.00000
C          4.28680       -4.12500        0.00000
Cl         4.28680       -4.95000        0.00000
C          5.00130       -3.71250        0.00000
C          5.71580       -4.12500        0.00000
C          6.43020       -3.71250        0.00000
C          7.14470       -4.12500        0.00000
N          7.85920       -3.71250        0.00000
N          7.94540       -2.89200        0.00000
C          8.75240       -2.72050        0.00000
C          9.08790       -1.96680        0.00000
N          9.16490       -3.43500        0.00000
C          9.98540       -3.52120        0.00000
F         10.47030       -2.85380        0.00000
F         10.32090       -4.27490        0.00000
C          8.61290       -4.04810        0.00000
O          8.78440       -4.85500        0.00000
C          7.14470       -4.95000        0.00000
F          7.85920       -5.36250        0.00000
C          6.43020       -5.36250        0.00000
C          5.71580       -4.95000        0.00000
Cl         5.00130       -5.36250        0.00000
