19
CCOP(OCC)(N2C(c1ccccc1C2=O)=O)=S
C         -0.99620        0.73100        0.00000
C         -1.40870        0.01650        0.00000
O         -0.99620       -0.69790        0.00000
P         -0.17120       -0.69790        0.00000
O         -0.17120       -1.52290        0.00000
C         -0.88570       -1.93540        0.00000
C         -1.60010       -1.52290        0.00000
N          0.65380       -0.69790        0.00000
C          1.13870       -0.03050        0.00000
C          1.92330       -0.28540        0.00000
C          2.63780        0.12710        0.00000
C          3.35230       -0.28540        0.00000
C          3.35230       -1.11040        0.00000
C          2.63780       -1.52290        0.00000
C          1.92330       -1.11040        0.00000
C          1.13870       -1.36540        0.00000
O          0.88380       -2.15000        0.00000
O          0.88380        0.75410        0.00000
S         -0.17120        0.12710        0.00000
