18
chlorfenson
Cl         2.14340       -1.23750        0.00000
C          2.14340       -2.06250        0.00000
C          2.85790       -2.47500        0.00000
C          2.85790       -3.30000        0.00000
C          2.14340       -3.71250        0.00000
O          2.14340       -4.53750        0.00000
S          1.42890       -4.95000        0.00000
O          1.01640       -4.23550        0.00000
O          1.84140       -5.66450        0.00000
C          0.71450       -5.36250        0.00000
C          0.71450       -6.18750        0.00000
C          0.00000       -6.60000        0.00000
C         -0.71450       -6.18750        0.00000
Cl        -1.42890       -6.60000        0.00000
C         -0.71450       -5.36250        0.00000
C          0.00000       -4.95000        0.00000
C          1.42890       -3.30000        0.00000
C          1.42890       -2.47500        0.00000
