27
chlorimuron ethyl
C         -0.71450       -0.41250        0.00000
C         -1.42890       -0.82500        0.00000
O         -1.42890       -1.65000        0.00000
C         -2.14340       -2.06250        0.00000
O         -2.85790       -1.65000        0.00000
C         -2.14340       -2.88750        0.00000
C         -1.42890       -3.30000        0.00000
C         -1.42890       -4.12500        0.00000
C         -2.14340       -4.53750        0.00000
C         -2.85790       -4.12500        0.00000
C         -2.85790       -3.30000        0.00000
S         -3.57240       -2.88750        0.00000
O         -3.15990       -2.17300        0.00000
O         -3.98490       -3.60200        0.00000
N         -4.28680       -2.47500        0.00000
C         -5.00130       -2.88750        0.00000
O         -5.00130       -3.71250        0.00000
N         -5.71580       -2.47500        0.00000
C         -6.43020       -2.88750        0.00000
N         -6.43020       -3.71250        0.00000
C         -7.14470       -4.12500        0.00000
Cl        -7.14470       -4.95000        0.00000
C         -7.85920       -3.71250        0.00000
C         -7.85920       -2.88750        0.00000
O         -8.57370       -2.47500        0.00000
C         -9.28810       -2.88750        0.00000
N         -7.14470       -2.47500        0.00000
