10
chloro-1-methyl-1H-pyrazole-4- carboxylate
N          0.56780        1.11430        0.00000
N          1.23520        0.62940        0.00000
C          0.98030       -0.15530        0.00000
C          0.15530       -0.15530        0.00000
C         -0.09970        0.62940        0.00000
C         -0.32970       -0.82270        0.00000
O          0.00590       -1.57640        0.00000
O         -1.15010       -0.73650        0.00000
C          0.56780        1.93930        0.00000
Cl         1.46520       -0.82270        0.00000
