28
cinosulfuron
C          0.00000       -5.77500        0.00000
O          0.71450       -5.36250        0.00000
C          1.42890       -5.77500        0.00000
C          2.14340       -5.36250        0.00000
O          2.85790       -5.77500        0.00000
C          3.57240       -5.36250        0.00000
C          3.57240       -4.53750        0.00000
C          4.28680       -4.12500        0.00000
C          5.00130       -4.53750        0.00000
C          5.00130       -5.36250        0.00000
C          4.28680       -5.77500        0.00000
S          4.28680       -6.60000        0.00000
O          3.46180       -6.60000        0.00000
O          5.11180       -6.60000        0.00000
N          4.28680       -7.42500        0.00000
C          5.00130       -7.83750        0.00000
O          5.00130       -8.66250        0.00000
N          5.71580       -7.42500        0.00000
C          6.43020       -7.83750        0.00000
N          7.14470       -7.42500        0.00000
C          7.85920       -7.83750        0.00000
O          8.57370       -7.42500        0.00000
C          8.57370       -6.60000        0.00000
N          7.85920       -8.66250        0.00000
C          7.14470       -9.07500        0.00000
O          7.14470       -9.90000        0.00000
C          6.43020      -10.31250        0.00000
N          6.43020       -8.66250        0.00000
