16
clomazone
C          1.48470       -0.68600        0.00000
C          2.03670       -1.29910        0.00000
C          2.58870       -0.68600        0.00000
C          1.36930       -1.78400        0.00000
O          1.62420       -2.56870        0.00000
N          2.44920       -2.56870        0.00000
C          2.93410       -3.23610        0.00000
C          2.59860       -3.98980        0.00000
C          3.08350       -4.65720        0.00000
C          2.74790       -5.41090        0.00000
C          1.92750       -5.49710        0.00000
C          1.44250       -4.82970        0.00000
C          1.77810       -4.07600        0.00000
Cl         1.29320       -3.40860        0.00000
C          2.70410       -1.78400        0.00000
O          3.48880       -1.52910        0.00000
