11
copper sulfate pentahydrate
O          0.00000        0.00000        0.00000
O          2.23930        0.00000        0.00000
O          4.47860        0.00000        0.00000
O          0.00000       -1.65000        0.00000
O          2.23930       -1.65000        0.00000
Cu         4.36070       -1.65000        0.00000
O          0.00000       -4.95000        0.00000
S          0.00000       -4.12500        0.00000
O          0.00000       -3.30000        0.00000
O          0.82500       -4.12500        0.00000
O         -0.82500       -4.12500        0.00000
