6
copper arsenate
Cu         0.00000        0.00000        0.00000
O          2.82860       -0.82500        0.00000
As         2.82860        0.00000        0.00000
O          2.82860        0.82500        0.00000
O          3.65360        0.00000        0.00000
O          2.00360        0.00000        0.00000
