14
copper carbonate copper carbonate
C          0.00000        0.08250        0.00000
O          0.00000       -0.74250        0.00000
C         -1.42890        0.08250        0.00000
O         -0.71450        0.49500        0.00000
O         -2.14340        0.49500        0.00000
O         -1.42890       -0.74250        0.00000
Cu         4.26480        0.00000        0.00000
Cu         6.38630        0.00000        0.00000
C          1.42890        0.08250        0.00000
O          0.71450        0.49500        0.00000
O          2.14340        0.49500        0.00000
O          1.42890       -0.74250        0.00000
Cu         0.00000       -2.39250        0.00000
Cu         2.12140       -2.39250        0.00000
