18
copper carbonate (carboxymethylamino)methylphosphonic acid
C          0.65090       -0.00320        0.00000
P         -0.06350        0.40930        0.00000
O         -0.47600       -0.30520        0.00000
N          0.65090       -0.82820        0.00000
C          1.36540       -1.24070        0.00000
C          1.36540       -2.06570        0.00000
O          2.07990       -2.47820        0.00000
O          0.65090       -2.47820        0.00000
C         -1.49250        0.40930        0.00000
O         -0.77800        0.82180        0.00000
O         -1.49250       -0.41570        0.00000
O         -2.20690        0.82180        0.00000
Cu         4.20130        0.00000        0.00000
C         -0.06350        1.83820        0.00000
O          0.34900        1.12380        0.00000
O          0.34900        2.55270        0.00000
O         -0.88850        1.83820        0.00000
Cu         0.00000       -4.12820        0.00000
