22
Coumaphos
C         -4.28680       -0.82500        0.00000
C         -3.57240       -1.23750        0.00000
O         -2.85790       -0.82500        0.00000
P         -2.14340       -1.23750        0.00000
S         -2.55590       -1.95200        0.00000
O         -1.73090       -0.52300        0.00000
C         -2.14340        0.19140        0.00000
C         -1.73090        0.90590        0.00000
O         -1.42890       -1.65000        0.00000
C         -0.71450       -1.23750        0.00000
C          0.00000       -1.65000        0.00000
C          0.71450       -1.23750        0.00000
C          0.71450       -0.41250        0.00000
C          0.00000        0.00000        0.00000
C         -0.71450       -0.41250        0.00000
C          1.42890        0.00000        0.00000
C          1.42890        0.82500        0.00000
C          2.14340       -0.41250        0.00000
Cl         2.85790        0.00000        0.00000
C          2.14340       -1.23750        0.00000
O          2.85790       -1.65000        0.00000
O          1.42890       -1.65000        0.00000
