21
Crotoxyphos
C         -2.14340        7.01250        0.00000
O         -1.42890        6.60000        0.00000
P         -1.42890        5.77500        0.00000
O         -2.25390        5.77500        0.00000
O         -0.60390        5.77500        0.00000
C         -0.19140        6.48950        0.00000
O         -1.42890        4.95000        0.00000
C         -0.71450        4.53750        0.00000
C          0.00000        4.95000        0.00000
C         -0.71450        3.71250        0.00000
C          0.00000        3.30000        0.00000
O          0.71450        3.71250        0.00000
O          0.00000        2.47500        0.00000
C          0.71450        2.06250        0.00000
C          1.42890        2.47500        0.00000
C          0.71450        1.23750        0.00000
C          1.42890        0.82500        0.00000
C          1.42890        0.00000        0.00000
C          0.71450       -0.41250        0.00000
C          0.00000        0.00000        0.00000
C          0.00000        0.82500        0.00000
