22
cyano(3-phenoxyphenyl)methyl cyclopropanecarboxylate
C          3.57240       -2.88750        0.00000
C          3.98490       -2.17300        0.00000
C          4.39740       -2.88750        0.00000
C          2.85790       -3.30000        0.00000
O          2.14340       -2.88750        0.00000
O          2.85790       -4.12500        0.00000
C          3.57240       -4.53750        0.00000
C          3.57240       -5.36250        0.00000
C          4.28680       -5.77500        0.00000
C          4.28680       -6.60000        0.00000
C          3.57240       -7.01250        0.00000
C          2.85790       -6.60000        0.00000
C          2.85790       -5.77500        0.00000
O          5.00130       -7.01250        0.00000
C          5.00130       -7.83750        0.00000
C          5.71580       -8.25000        0.00000
C          5.71580       -9.07500        0.00000
C          5.00130       -9.48750        0.00000
C          4.28680       -9.07500        0.00000
C          4.28680       -8.25000        0.00000
C          4.28680       -4.12500        0.00000
N          5.00130       -3.71250        0.00000
