22
cycloxydim
C         -1.42890        0.00000        0.00000
C         -0.71450       -0.41250        0.00000
C          0.00000        0.00000        0.00000
C          0.71450       -0.41250        0.00000
N          1.42890        0.00000        0.00000
O          1.42890        0.82500        0.00000
C          2.14340        1.23750        0.00000
C          2.14340        2.06250        0.00000
C          0.71450       -1.23750        0.00000
C          1.42890       -1.65000        0.00000
O          2.14340       -1.23750        0.00000
C          1.42890       -2.47500        0.00000
C          0.71450       -2.88750        0.00000
C          0.00000       -2.47500        0.00000
C          0.00000       -1.65000        0.00000
O         -0.71450       -1.23750        0.00000
C          0.71450       -3.71250        0.00000
C          1.42890       -4.12500        0.00000
C          1.42890       -4.95000        0.00000
C          0.71450       -5.36250        0.00000
S          0.00000       -4.95000        0.00000
C          0.00000       -4.12500        0.00000
