6
cyclopropane-1-carboxylate
O         -0.47630        2.12630        0.00000
C          0.23820        1.71380        0.00000
O          0.95260        2.12630        0.00000
C          0.23820        0.88880        0.00000
C          0.65070        0.17430        0.00000
C         -0.17430        0.17430        0.00000
