30
cycloprothrin
Cl         1.61970       -0.62110        0.00000
C          0.98770       -1.15140        0.00000
Cl         0.35570       -0.62110        0.00000
C          1.40020       -1.86580        0.00000
C          0.57520       -1.86580        0.00000
C          0.22650       -2.61350        0.00000
O         -0.53290       -2.93590        0.00000
O          0.69970       -3.28930        0.00000
C          0.35110       -4.03700        0.00000
C         -0.47080       -4.10890        0.00000
N         -1.29270       -4.18080        0.00000
C          0.82430       -4.71280        0.00000
C          1.64610       -4.64090        0.00000
C          2.11930       -5.31670        0.00000
C          1.77070       -6.06440        0.00000
C          0.94880       -6.13630        0.00000
O          0.60010       -6.88400        0.00000
C          1.07330       -7.55980        0.00000
C          1.89520       -7.48790        0.00000
C          2.36840       -8.16370        0.00000
C          2.01970       -8.91140        0.00000
C          1.19790       -8.98340        0.00000
C          0.72470       -8.30760        0.00000
C          0.47560       -5.46050        0.00000
C         -0.24670       -1.79390        0.00000
C         -0.71990       -2.46970        0.00000
C         -1.54170       -2.39780        0.00000
C         -1.89040       -1.65010        0.00000
C         -1.41720       -0.97430        0.00000
C         -0.59530       -1.04620        0.00000
