14
cyclophosphamide
Cl        -1.98360       -1.53320        0.00000
C         -1.15860       -1.53320        0.00000
C         -0.74610       -0.81870        0.00000
N          0.07890       -0.81870        0.00000
C          0.49140       -1.53320        0.00000
C          1.31640       -1.53320        0.00000
Cl         1.72890       -2.24770        0.00000
P          0.49140       -0.10430        0.00000
O          1.12340       -0.63460        0.00000
N         -0.28380        0.17790        0.00000
C         -0.42710        0.99040        0.00000
C          0.20490        1.52070        0.00000
C          0.98010        1.23850        0.00000
O          1.12340        0.42600        0.00000
