14
cycluron
C         -0.43310        3.96540        0.00000
N          0.28140        3.55290        0.00000
C          0.99590        3.96540        0.00000
C          0.28140        2.72790        0.00000
O         -0.43310        2.31540        0.00000
N          0.99590        2.31540        0.00000
C          0.99590        1.49040        0.00000
C          1.75810        1.17470        0.00000
C          2.07380        0.41250        0.00000
C          1.75810       -0.34970        0.00000
C          0.99590       -0.66540        0.00000
C          0.23370       -0.34970        0.00000
C         -0.08210        0.41250        0.00000
C          0.23370        1.17470        0.00000
