20
cyproconazole
C         -0.04670        1.60330        0.00000
C         -0.76120        1.19080        0.00000
C         -0.76120        0.36580        0.00000
C         -0.34870       -0.34870        0.00000
C         -1.17370       -0.34870        0.00000
C         -1.47570        1.60330        0.00000
O         -2.19010        2.01580        0.00000
C         -1.06320        2.31780        0.00000
N         -1.47570        3.03220        0.00000
C         -2.29610        3.11850        0.00000
N         -2.46770        3.92540        0.00000
C         -1.75320        4.33790        0.00000
N         -1.14010        3.78590        0.00000
C         -1.88820        0.88880        0.00000
C         -1.47570        0.17430        0.00000
C         -1.88820       -0.54010        0.00000
C         -2.71320       -0.54010        0.00000
Cl        -3.12570       -1.25460        0.00000
C         -3.12570        0.17430        0.00000
C         -2.71320        0.88880        0.00000
