19
cyprofuram
Cl         4.58880        4.42700        0.00000
C          3.87430        4.01450        0.00000
C          3.87430        3.18950        0.00000
C          3.15990        2.77700        0.00000
C          2.44540        3.18950        0.00000
C          2.44540        4.01450        0.00000
C          3.15990        4.42700        0.00000
N          1.73090        4.42700        0.00000
C          1.73090        5.25200        0.00000
C          1.06350        5.73690        0.00000
C          1.31840        6.52150        0.00000
O          2.14340        6.52150        0.00000
C          2.39840        5.73690        0.00000
O          3.18300        5.48200        0.00000
C          1.01640        4.01450        0.00000
O          0.30200        4.42700        0.00000
C          1.01640        3.18950        0.00000
C          1.42890        2.47500        0.00000
C          0.60390        2.47500        0.00000
