15
cyprazine
C         -1.01640        1.88820        0.00000
C         -0.30200        2.30070        0.00000
C         -0.30200        3.12570        0.00000
N          0.41250        1.88820        0.00000
C          1.12700        2.30070        0.00000
N          1.12700        3.12570        0.00000
C          1.84140        3.53820        0.00000
Cl         1.84140        4.36320        0.00000
N          2.55590        3.12570        0.00000
C          2.55590        2.30070        0.00000
N          3.27040        1.88820        0.00000
C          3.27040        1.06320        0.00000
C          3.68290        0.34870        0.00000
C          2.85790        0.34870        0.00000
N          1.84140        1.88820        0.00000
