16
decitabine
N          0.71450        6.76610        0.00000
C          0.71450        5.94110        0.00000
N          1.42890        5.52860        0.00000
C          1.42890        4.70360        0.00000
O          2.14340        4.29110        0.00000
N          0.71450        4.29110        0.00000
C          0.00000        4.70360        0.00000
N          0.00000        5.52860        0.00000
C          0.71450        3.46610        0.00000
C          1.38190        2.98120        0.00000
C          1.12700        2.19650        0.00000
O          1.61190        1.52910        0.00000
C          0.30200        2.19650        0.00000
C         -0.18300        1.52910        0.00000
O          0.15260        0.77540        0.00000
O          0.04700        2.98120        0.00000
