28
Deltamethrin
C          2.52790       -4.13230        0.00000
C          3.15990       -3.60200        0.00000
C          3.79180       -4.13230        0.00000
C          2.74740       -2.88750        0.00000
C          2.03290       -2.47500        0.00000
C          2.03290       -1.65000        0.00000
Br         1.31840       -1.23750        0.00000
Br         2.74740       -1.23750        0.00000
C          3.57240       -2.88750        0.00000
C          4.28680       -2.47500        0.00000
O          5.00130       -2.88750        0.00000
O          4.28680       -1.65000        0.00000
C          5.00130       -1.23750        0.00000
C          5.71580       -1.65000        0.00000
N          6.43020       -2.06250        0.00000
C          5.00130       -0.41250        0.00000
C          4.28680        0.00000        0.00000
C          4.28680        0.82500        0.00000
C          5.00130        1.23750        0.00000
C          5.71580        0.82500        0.00000
O          6.43020        1.23750        0.00000
C          7.14470        0.82500        0.00000
C          7.85920        1.23750        0.00000
C          8.57370        0.82500        0.00000
C          8.57370        0.00000        0.00000
C          7.85920       -0.41250        0.00000
C          7.14470        0.00000        0.00000
C          5.71580        0.00000        0.00000
