23
Dialifor
C         -4.75340       -2.12690        0.00000
C         -3.92840       -2.12690        0.00000
O         -3.51590       -1.41240        0.00000
P         -2.69090       -1.41240        0.00000
S         -2.69090       -2.23740        0.00000
O         -2.69090       -0.58740        0.00000
C         -3.40540       -0.17490        0.00000
C         -3.40540        0.65010        0.00000
S         -1.86590       -1.41240        0.00000
C         -1.45340       -0.69790        0.00000
C         -1.86590        0.01650        0.00000
Cl        -1.45340        0.73100        0.00000
N         -0.62840       -0.69790        0.00000
C         -0.14350       -1.36540        0.00000
O         -0.39840       -2.15000        0.00000
C          0.64110       -1.11040        0.00000
C          0.64110       -0.28540        0.00000
C          1.35560        0.12710        0.00000
C          2.07010       -0.28540        0.00000
C          2.07010       -1.11040        0.00000
C          1.35560       -1.52290        0.00000
C         -0.14350       -0.03050        0.00000
O         -0.39840        0.75410        0.00000
