12
diamide
C          2.47500        1.42890        0.00000
N          2.06250        0.71450        0.00000
C          2.47500        0.00000        0.00000
C          1.23750        0.71450        0.00000
O          0.82500        1.42890        0.00000
N          0.82500        0.00000        0.00000
N          0.00000        0.00000        0.00000
C         -0.41250       -0.71450        0.00000
O          0.00000       -1.42890        0.00000
N         -1.23750       -0.71450        0.00000
C         -1.65000       -1.42890        0.00000
C         -1.65000        0.00000        0.00000
