9
dichloropropane propylene oxide
C         -3.49140       -0.71450        0.00000
C         -2.66640       -0.71450        0.00000
C         -1.95200       -0.30200        0.00000
O         -3.07890       -1.42890        0.00000
C         -1.23750       -0.71450        0.00000
C         -0.52300       -0.30200        0.00000
C          0.19140       -0.71450        0.00000
Cl        -1.23750       -1.53950        0.00000
Cl         0.90590       -0.30200        0.00000
