22
Diclofop-Methyl
C         -4.28680       -4.12500        0.00000
O         -3.57240       -4.53750        0.00000
C         -2.85790       -4.12500        0.00000
O         -2.85790       -3.30000        0.00000
C         -2.14340       -4.53750        0.00000
C         -2.14340       -5.36250        0.00000
O         -1.42890       -4.12500        0.00000
C         -0.71450       -4.53750        0.00000
C          0.00000       -4.12500        0.00000
C          0.71450       -4.53750        0.00000
C          0.71450       -5.36250        0.00000
O          1.42890       -5.77500        0.00000
C          2.14340       -5.36250        0.00000
C          2.14340       -4.53750        0.00000
Cl         1.42890       -4.12500        0.00000
C          2.85790       -4.12500        0.00000
C          3.57240       -4.53750        0.00000
Cl         4.28680       -4.12500        0.00000
C          3.57240       -5.36250        0.00000
C          2.85790       -5.77500        0.00000
C          0.00000       -5.77500        0.00000
C         -0.71450       -5.36250        0.00000
