19
Dieldrin
Cl        -0.27870        0.59500        0.00000
C         -0.39480       -0.22180        0.00000
C         -0.71690       -0.90440        0.00000
Cl        -1.52300       -0.72880        0.00000
C         -0.70760       -1.68710        0.00000
Cl        -1.22230       -2.33180        0.00000
C          0.13510       -2.06020        0.00000
C          0.91060       -1.66990        0.00000
C          0.98070       -0.13410        0.00000
C          1.14070       -0.94950        0.00000
C          1.93620       -1.41480        0.00000
O          2.40630       -2.09270        0.00000
C          1.58410       -2.16090        0.00000
C          0.46980       -1.45510        0.00000
C         -0.25780       -1.07910        0.00000
Cl         0.41070       -0.59560        0.00000
C         -1.46260       -2.03420        0.00000
Cl        -2.27770       -1.90730        0.00000
Cl        -1.71820       -2.81860        0.00000
