12
dimethipin
C          2.14340        1.23750        0.00000
C          1.42890        0.82500        0.00000
C          1.42890        0.00000        0.00000
C          2.14340       -0.41250        0.00000
S          0.71450       -0.41250        0.00000
O          1.24480       -1.04450        0.00000
O          0.18420       -1.04450        0.00000
C          0.00000        0.00000        0.00000
C          0.00000        0.82500        0.00000
S          0.71450        1.23750        0.00000
O          0.32720        1.96590        0.00000
O          1.10180        1.96590        0.00000
