18
dimepiperate
C          1.53950       -1.23750        0.00000
C          0.71450       -1.23750        0.00000
C         -0.11050       -1.23750        0.00000
S          0.71450       -2.06250        0.00000
C          1.42890       -2.47500        0.00000
O          2.14340       -2.06250        0.00000
N          1.42890       -3.30000        0.00000
C          2.14340       -3.71250        0.00000
C          2.14340       -4.53750        0.00000
C          1.42890       -4.95000        0.00000
C          0.71450       -4.53750        0.00000
C          0.71450       -3.71250        0.00000
C          0.71450       -0.41250        0.00000
C          0.00000        0.00000        0.00000
C          0.00000        0.82500        0.00000
C          0.71450        1.23750        0.00000
C          1.42890        0.82500        0.00000
C          1.42890        0.00000        0.00000
