11
dimethyl-N,N?-thiodicarbamate
S          0.82500        0.00000        0.00000
N          0.82500       -0.82500        0.00000
C          0.11050       -1.23750        0.00000
O          0.11050       -2.06250        0.00000
O         -0.60390       -0.82500        0.00000
N          0.82500        0.82500        0.00000
C          1.53950        1.23750        0.00000
O          1.53950        2.06250        0.00000
O          2.25390        0.82500        0.00000
C          1.65000        0.00000        0.00000
C          0.00000        0.00000        0.00000
