16
Diquat dibromide
Br         0.00000        0.00000        0.00000
Br         1.00180        0.00000        0.00000
C         -0.41250       -3.79340        0.00000
C          0.41250       -3.79340        0.00000
N          0.82500       -3.07890        0.00000
C          0.41250       -2.36450        0.00000
C          0.82500       -1.65000        0.00000
C          1.65000       -1.65000        0.00000
C          2.06250       -2.36450        0.00000
C          1.65000       -3.07890        0.00000
C         -0.41250       -2.36450        0.00000
N         -0.82500       -3.07890        0.00000
C         -1.65000       -3.07890        0.00000
C         -2.06250       -2.36450        0.00000
C         -1.65000       -1.65000        0.00000
C         -0.82500       -1.65000        0.00000
