7
disodium hydrogen arsenate
Na         0.00000        0.00000        0.00000
Na         1.00180        0.00000        0.00000
O          0.00000       -3.30000        0.00000
As         0.00000       -2.47500        0.00000
O          0.00000       -1.65000        0.00000
O          0.82500       -2.47500        0.00000
O         -0.82500       -2.47500        0.00000
