8
dithiobis(thioformate)
O         -0.19140        0.71450        0.00000
C          0.52300        1.12700        0.00000
S          0.52300        1.95200        0.00000
S          1.23750        0.71450        0.00000
S          1.95200        1.12700        0.00000
C          2.66640        0.71450        0.00000
O          3.38090        1.12700        0.00000
S          2.66640       -0.11050        0.00000
