20
dodine
C          0.41250        0.71450        0.00000
C          0.00000        0.00000        0.00000
O          0.41250       -0.71450        0.00000
O         -0.82500        0.00000        0.00000
C          2.65180        0.25780        0.00000
C          3.36630       -0.15470        0.00000
C          4.08070        0.25780        0.00000
C          4.79520       -0.15470        0.00000
C          5.50970        0.25780        0.00000
C          6.22410       -0.15470        0.00000
C          6.93860        0.25780        0.00000
C          7.65310       -0.15470        0.00000
C          8.36760        0.25780        0.00000
C          9.08200       -0.15470        0.00000
C          9.79650        0.25780        0.00000
C         10.51100       -0.15470        0.00000
N         11.22540        0.25780        0.00000
C         11.93990       -0.15470        0.00000
N         12.65440        0.25780        0.00000
N         11.93990       -0.97970        0.00000
