12
Ekatin
C          5.52430        0.71450        0.00000
C          4.80990        0.30200        0.00000
S          4.09540        0.71450        0.00000
C          3.38090        0.30200        0.00000
C          2.66640        0.71450        0.00000
S          1.95200        0.30200        0.00000
P          1.23750        0.71450        0.00000
S          1.65000        1.42890        0.00000
O          0.52300        1.12700        0.00000
C         -0.19140        0.71450        0.00000
O          0.82500        0.00000        0.00000
C          0.00000        0.00000        0.00000
