46
epoxiconazole
F          2.75600        1.74600        0.00000
C          2.12400        1.21570        0.00000
C          2.26720        0.40320        0.00000
C          1.63530       -0.12710        0.00000
C          0.86000        0.15510        0.00000
C          0.71680        0.96760        0.00000
C          1.34870        1.49790        0.00000
C          0.22800       -0.37520        0.00000
C         -0.40400        0.15510        0.00000
N         -0.26070        0.96760        0.00000
C          0.48080        1.32920        0.00000
N          0.36600        2.14620        0.00000
C         -0.44650        2.28950        0.00000
N         -0.83380        1.56100        0.00000
O          0.64050       -1.08970        0.00000
C         -0.18450       -1.08970        0.00000
C         -0.89890       -1.50220        0.00000
C         -0.89890       -2.32720        0.00000
C         -1.61340       -2.73970        0.00000
C         -2.32790       -2.32720        0.00000
C         -2.32790       -1.50220        0.00000
C         -1.61340       -1.08970        0.00000
Cl        -1.61340       -0.26470        0.00000
F          9.96130        1.74600        0.00000
C          9.32930        1.21570        0.00000
C          9.47250        0.40320        0.00000
C          8.84050       -0.12710        0.00000
C          8.06530        0.15510        0.00000
C          7.92200        0.96760        0.00000
C          8.55400        1.49790        0.00000
C          7.43330       -0.37520        0.00000
C          6.80130        0.15510        0.00000
N          6.94460        0.96760        0.00000
C          7.68610        1.32920        0.00000
N          7.57130        2.14620        0.00000
C          6.75880        2.28950        0.00000
N          6.37150        1.56100        0.00000
O          7.84580       -1.08970        0.00000
C          7.02080       -1.08970        0.00000
C          6.30630       -1.50220        0.00000
C          6.30630       -2.32720        0.00000
C          5.59190       -2.73970        0.00000
C          4.87740       -2.32720        0.00000
C          4.87740       -1.50220        0.00000
C          5.59190       -1.08970        0.00000
Cl         5.59190       -0.26470        0.00000
