23
ethalfluralin
C          1.42890       -2.47500        0.00000
C          0.71450       -2.06250        0.00000
N          0.71450       -1.23750        0.00000
C          1.42890       -0.82500        0.00000
C          2.14340       -1.23750        0.00000
C          2.85790       -0.82500        0.00000
C          2.14340       -2.06250        0.00000
C          0.00000       -0.82500        0.00000
C         -0.71450       -1.23750        0.00000
C         -1.42890       -0.82500        0.00000
C         -1.42890        0.00000        0.00000
C         -0.71450        0.41250        0.00000
C          0.00000        0.00000        0.00000
N          0.71450        0.41250        0.00000
O          1.42890        0.00000        0.00000
O          0.71450        1.23750        0.00000
C         -2.14340        0.41250        0.00000
F         -2.85790        0.82500        0.00000
F         -1.73090        1.12700        0.00000
F         -2.55590       -0.30200        0.00000
N         -0.71450       -2.06250        0.00000
O         -1.42890       -2.47500        0.00000
O          0.00000       -2.47500        0.00000
