16
ethoxyquin
C         -2.85790       -1.65000        0.00000
C         -2.14340       -1.23750        0.00000
O         -1.42890       -1.65000        0.00000
C         -0.71450       -1.23750        0.00000
C          0.00000       -1.65000        0.00000
C          0.71450       -1.23750        0.00000
C          0.71450       -0.41250        0.00000
N          1.42890        0.00000        0.00000
C          2.14340       -0.41250        0.00000
C          2.42560        0.36270        0.00000
C          2.95590       -0.55580        0.00000
C          2.14340       -1.23750        0.00000
C          1.42890       -1.65000        0.00000
C          1.42890       -2.47500        0.00000
C          0.00000        0.00000        0.00000
C         -0.71450       -0.41250        0.00000
