30
ethoxycarbonylmethyl 5-(2-chloro-4-trifluoromethylphenoxy)-2-nitrobenzoate
C         -3.57240       -6.18750        0.00000
C         -2.85790       -5.77500        0.00000
O         -2.14340       -6.18750        0.00000
C         -1.42890       -5.77500        0.00000
O         -1.42890       -4.95000        0.00000
C         -0.71450       -6.18750        0.00000
O          0.00000       -5.77500        0.00000
C          0.71450       -6.18750        0.00000
O          0.71450       -7.01250        0.00000
C          1.42890       -5.77500        0.00000
C          1.42890       -4.95000        0.00000
C          2.14340       -4.53750        0.00000
C          2.85790       -4.95000        0.00000
C          2.85790       -5.77500        0.00000
O          3.57240       -6.18750        0.00000
C          4.28680       -5.77500        0.00000
C          4.28680       -4.95000        0.00000
Cl         3.57240       -4.53750        0.00000
C          5.00130       -4.53750        0.00000
C          5.71580       -4.95000        0.00000
C          5.71580       -5.77500        0.00000
C          5.00130       -6.18750        0.00000
C          6.43020       -4.53750        0.00000
F          7.14470       -4.12500        0.00000
F          6.84270       -5.25200        0.00000
F          6.01770       -3.82300        0.00000
C          2.14340       -6.18750        0.00000
N          0.71450       -4.53750        0.00000
O          0.71450       -3.71250        0.00000
O          0.00000       -4.95000        0.00000
