16
ethychlozate
C          2.77910       -0.82210        0.00000
C          3.49350       -0.40960        0.00000
O          4.20800       -0.82210        0.00000
C          4.92250       -0.40960        0.00000
O          4.92250        0.41540        0.00000
C          5.63700       -0.82210        0.00000
C          6.35140       -0.40960        0.00000
N          6.43770        0.41090        0.00000
N          7.24460        0.58240        0.00000
C          7.65710       -0.13200        0.00000
C          8.46410       -0.30360        0.00000
C          8.71900       -1.08820        0.00000
C          8.16700       -1.70130        0.00000
Cl         8.42200       -2.48590        0.00000
C          7.36000       -1.52980        0.00000
C          7.10510       -0.74510        0.00000
