24
ethyl ester ethyl 2-(4-phenoxyphenoxy)ethylcarbamate
N         10.00260       -3.30000        0.00000
C          9.28810       -2.88750        0.00000
O          9.28810       -2.06250        0.00000
O          8.57370       -3.30000        0.00000
C         10.71710       -2.88750        0.00000
C         11.43150       -3.30000        0.00000
O         12.14600       -2.88750        0.00000
C         12.86050       -3.30000        0.00000
C         13.57490       -2.88750        0.00000
C         14.28940       -3.30000        0.00000
C         14.28940       -4.12500        0.00000
C         13.57490       -4.53750        0.00000
C         12.86050       -4.12500        0.00000
O         15.00390       -4.53750        0.00000
C         15.00390       -5.36250        0.00000
C         15.71840       -5.77500        0.00000
C         15.71840       -6.60000        0.00000
C         15.00390       -7.01250        0.00000
C         14.28940       -6.60000        0.00000
C         14.28940       -5.77500        0.00000
C         10.00260       -4.12500        0.00000
C         10.71710       -4.53750        0.00000
C          7.85920       -2.88750        0.00000
C          7.14470       -3.30000        0.00000
