10
ethylene chloride ethylene dichloride ethylene oxide
C          0.23820        0.88880        0.00000
C          0.65070        0.17430        0.00000
O         -0.17430        0.17430        0.00000
C          1.36510       -0.23820        0.00000
C          2.07960        0.17430        0.00000
Cl         1.36510       -1.06320        0.00000
Cl         2.79410       -0.23820        0.00000
C          0.23820        1.71380        0.00000
C         -0.47630        2.12630        0.00000
Cl         0.95260        2.12630        0.00000
