8
ethylene dibromide 1,2-dichloroethane
C          1.23750        0.71450        0.00000
C          0.82500        0.00000        0.00000
Cl         2.06250        0.71450        0.00000
Cl         1.23750       -0.71450        0.00000
C          0.00000        0.00000        0.00000
C         -0.41250       -0.71450        0.00000
Br        -0.41250        0.71450        0.00000
Br         0.00000       -1.42890        0.00000
