18
Etomidate
C          2.03670        1.17590        0.00000
C          2.75120        0.76340        0.00000
O          2.75120       -0.06160        0.00000
C          2.03670       -0.47410        0.00000
O          1.32220       -0.06160        0.00000
C          2.03670       -1.29910        0.00000
C          1.36930       -1.78400        0.00000
N          1.62420       -2.56870        0.00000
C          2.44920       -2.56870        0.00000
N          2.70410       -1.78400        0.00000
C          3.48880       -1.52910        0.00000
C          3.66030       -0.72210        0.00000
C          4.10190       -2.08110        0.00000
C          4.88650       -1.82620        0.00000
C          5.49960       -2.37820        0.00000
C          5.32810       -3.18520        0.00000
C          4.54340       -3.44010        0.00000
C          3.93030       -2.88810        0.00000
