26
etoxazole
C          3.57240       -0.41250        0.00000
C          2.85790        0.00000        0.00000
O          2.14340       -0.41250        0.00000
C          1.42890        0.00000        0.00000
C          0.71450       -0.41250        0.00000
C          0.00000        0.00000        0.00000
C          0.00000        0.82500        0.00000
C          0.71450        1.23750        0.00000
C          1.42890        0.82500        0.00000
C          0.71450        2.06250        0.00000
C          0.71450        2.88750        0.00000
C         -0.11050        2.06250        0.00000
C          1.53950        2.06250        0.00000
C          0.71450       -1.23750        0.00000
C          1.38190       -1.72240        0.00000
O          1.12700       -2.50700        0.00000
C          0.30200       -2.50700        0.00000
N          0.04700       -1.72240        0.00000
C         -0.18300       -3.17450        0.00000
C          0.15260       -3.92820        0.00000
F          0.97310       -4.01440        0.00000
C         -0.33230       -4.59560        0.00000
C         -1.15280       -4.50940        0.00000
C         -1.48840       -3.75570        0.00000
C         -1.00340       -3.08820        0.00000
F         -1.33900       -2.33460        0.00000
