18
etrimfos
C          0.00000        3.30000        0.00000
C          0.00000        2.47500        0.00000
O          0.71450        2.06250        0.00000
C          0.71450        1.23750        0.00000
C          1.42890        0.82500        0.00000
C          1.42890        0.00000        0.00000
O          2.14340       -0.41250        0.00000
P          2.14340       -1.23750        0.00000
S          1.31840       -1.23750        0.00000
O          2.14340       -2.06250        0.00000
C          2.85790       -2.47500        0.00000
O          2.96840       -1.23750        0.00000
C          3.38090       -1.95200        0.00000
N          0.71450       -0.41250        0.00000
C          0.00000        0.00000        0.00000
C         -0.71450       -0.41250        0.00000
C         -1.42890        0.00000        0.00000
N          0.00000        0.82500        0.00000
