28
famoxadone
C          3.70680       -1.42670        0.00000
C          4.25880       -2.03980        0.00000
O          4.92620       -2.52470        0.00000
C          4.67130       -3.30930        0.00000
O          5.15620       -3.97680        0.00000
N          3.84630       -3.30930        0.00000
N          3.36140       -3.97680        0.00000
C          3.69690       -4.73050        0.00000
C          4.51740       -4.81670        0.00000
C          4.85300       -5.57040        0.00000
C          4.36810       -6.23780        0.00000
C          3.54760       -6.15160        0.00000
C          3.21200       -5.39790        0.00000
C          3.59140       -2.52470        0.00000
O          2.80670       -2.26980        0.00000
C          4.81080       -1.42670        0.00000
C          4.55590       -0.64210        0.00000
C          5.10790       -0.02900        0.00000
C          5.91490       -0.20050        0.00000
O          6.46690        0.41260        0.00000
C          7.27390        0.24100        0.00000
C          7.82590        0.85410        0.00000
C          8.63290        0.68260        0.00000
C          8.88790       -0.10200        0.00000
C          8.33580       -0.71510        0.00000
C          7.52880       -0.54360        0.00000
C          6.16980       -0.98510        0.00000
C          5.61780       -1.59820        0.00000
