22
fenamidone
C         -0.53380       -2.90800        0.00000
S          0.28660       -2.99420        0.00000
C          0.77160       -2.32680        0.00000
N          0.51660       -1.54220        0.00000
C          1.18410       -1.05720        0.00000
C          0.63200       -0.44410        0.00000
C          1.85150       -1.54220        0.00000
O          2.63610       -1.28720        0.00000
N          1.59660       -2.32680        0.00000
N          2.08150       -2.99420        0.00000
C          1.74590       -3.74790        0.00000
C          2.23080       -4.41530        0.00000
C          1.89530       -5.16900        0.00000
C          1.07480       -5.25530        0.00000
C          0.58990       -4.58780        0.00000
C          0.92540       -3.83410        0.00000
C          1.73610       -0.44410        0.00000
C          1.48120        0.34050        0.00000
C          2.03320        0.95360        0.00000
C          2.84020        0.78200        0.00000
C          3.09510       -0.00260        0.00000
C          2.54310       -0.61570        0.00000
