16
fenaminosulf
Na         0.00000        0.00000        0.00000
C          2.82860        2.75000        0.00000
N          3.54300        2.33750        0.00000
C          4.25750        2.75000        0.00000
C          3.54300        1.51250        0.00000
C          4.25750        1.10000        0.00000
C          4.25750        0.27500        0.00000
C          3.54300       -0.13750        0.00000
C          2.82860        0.27500        0.00000
C          2.82860        1.10000        0.00000
N          3.54300       -0.96250        0.00000
N          2.82860       -1.37500        0.00000
S          2.82860       -2.20000        0.00000
O          2.82860       -3.02500        0.00000
O          2.00360       -2.20000        0.00000
O          3.65360       -2.20000        0.00000
