25
fenoxaprop-ethyl
C          2.72050       -6.71950        0.00000
C          3.43500       -6.30700        0.00000
O          4.14940       -6.71950        0.00000
C          4.86390       -6.30700        0.00000
O          4.86390       -5.48200        0.00000
C          5.57840       -6.71950        0.00000
C          5.57840       -7.54450        0.00000
O          6.29280       -6.30700        0.00000
C          7.00730       -6.71950        0.00000
C          7.72180       -6.30700        0.00000
C          8.43630       -6.71950        0.00000
C          8.43630       -7.54450        0.00000
O          9.15070       -7.95700        0.00000
C          9.15070       -8.78200        0.00000
N          8.48330       -9.26690        0.00000
C          8.73820      -10.05150        0.00000
C          9.56320      -10.05150        0.00000
O          9.81820       -9.26690        0.00000
C          9.97570      -10.76600        0.00000
C          9.56320      -11.48050        0.00000
Cl         9.97570      -12.19500        0.00000
C          8.73820      -11.48050        0.00000
C          8.32570      -10.76600        0.00000
C          7.72180       -7.95700        0.00000
C          7.00730       -7.54450        0.00000
