31
fenpyroximate
C          2.03670       -0.47410        0.00000
N          2.03670       -1.29910        0.00000
N          2.70410       -1.78400        0.00000
C          2.44920       -2.56870        0.00000
C          2.93410       -3.23610        0.00000
C          1.62420       -2.56870        0.00000
C          1.13930       -3.23610        0.00000
N          0.31880       -3.14990        0.00000
O         -0.16610       -3.81730        0.00000
C         -0.98660       -3.73110        0.00000
C         -1.47150       -4.39850        0.00000
C         -1.13600       -5.15220        0.00000
C         -1.62090       -5.81960        0.00000
C         -2.44140       -5.73340        0.00000
C         -2.77690       -4.97970        0.00000
C         -2.29200       -4.31230        0.00000
C         -2.92630       -6.40080        0.00000
O         -2.59070       -7.15450        0.00000
O         -3.74680       -6.31460        0.00000
C         -4.23170       -6.98200        0.00000
C         -4.71660       -7.64950        0.00000
C         -3.56430       -7.46690        0.00000
C         -4.89910       -6.49710        0.00000
C          1.36930       -1.78400        0.00000
O          0.58460       -1.52910        0.00000
C          0.41310       -0.72210        0.00000
C         -0.37150       -0.46720        0.00000
C         -0.54300        0.33980        0.00000
C          0.07010        0.89180        0.00000
C          0.85470        0.63690        0.00000
C          1.02620       -0.17010        0.00000
