23
fentin acetate
C          0.41250        0.71450        0.00000
C          0.00000        0.00000        0.00000
O          0.41250       -0.71450        0.00000
O         -0.82500        0.00000        0.00000
C          4.67730       -2.47500        0.00000
C          3.96290       -2.06250        0.00000
C          3.96290       -1.23750        0.00000
C          4.67730       -0.82500        0.00000
C          5.39180       -1.23750        0.00000
C          5.39180       -2.06250        0.00000
Sn         4.67730        0.00000        0.00000
C          5.39180        0.41250        0.00000
C          5.39180        1.23750        0.00000
C          6.10630        1.65000        0.00000
C          6.82080        1.23750        0.00000
C          6.82080        0.41250        0.00000
C          6.10630        0.00000        0.00000
C          3.96290        0.41250        0.00000
C          3.24840        0.00000        0.00000
C          2.53390        0.41250        0.00000
C          2.53390        1.23750        0.00000
C          3.24840        1.65000        0.00000
C          3.96290        1.23750        0.00000
