19
ferbam
C          5.33290        5.55390        0.00000
N          4.61840        5.14140        0.00000
C          3.90390        5.55390        0.00000
C          4.61840        4.31640        0.00000
S          5.33290        3.90390        0.00000
S          3.90390        3.90390        0.00000
Fe         3.90390        3.07890        0.00000
S          3.18950        2.66640        0.00000
C          3.18950        1.84140        0.00000
S          3.90390        1.42890        0.00000
N          2.47500        1.42890        0.00000
C          2.47500        0.60390        0.00000
C          1.76050        1.84140        0.00000
S          4.61840        2.66640        0.00000
C          4.61840        1.84140        0.00000
S          4.28290        1.08780        0.00000
N          5.33290        1.42890        0.00000
C          6.04740        1.84140        0.00000
C          5.33290        0.60390        0.00000
