25
flamprop-isopropyl
C          1.42890       -1.65000        0.00000
C          2.14340       -2.06250        0.00000
C          2.14340       -2.88750        0.00000
O          2.85790       -1.65000        0.00000
C          3.57240       -2.06250        0.00000
O          3.57240       -2.88750        0.00000
C          4.28680       -1.65000        0.00000
C          4.28680       -0.82500        0.00000
N          5.00130       -2.06250        0.00000
C          5.71580       -1.65000        0.00000
O          5.71580       -0.82500        0.00000
C          6.43020       -2.06250        0.00000
C          7.14470       -1.65000        0.00000
C          7.85920       -2.06250        0.00000
C          7.85920       -2.88750        0.00000
C          7.14470       -3.30000        0.00000
C          6.43020       -2.88750        0.00000
C          5.00130       -2.88750        0.00000
C          5.71580       -3.30000        0.00000
C          5.71580       -4.12500        0.00000
C          5.00130       -4.53750        0.00000
F          5.00130       -5.36250        0.00000
C          4.28680       -4.12500        0.00000
Cl         3.57240       -4.53750        0.00000
C          4.28680       -3.30000        0.00000
