28
flubenzimine
F          2.14340        0.41250        0.00000
C          1.42890        0.00000        0.00000
F          1.84140       -0.71450        0.00000
F          1.01640        0.71450        0.00000
N          0.71450       -0.41250        0.00000
C          0.71450       -1.23750        0.00000
S          1.38190       -1.72240        0.00000
C          1.12700       -2.50700        0.00000
N          1.61190       -3.17450        0.00000
C          1.27630       -3.92820        0.00000
C          1.76130       -4.59560        0.00000
C          1.42570       -5.34930        0.00000
C          0.60520       -5.43550        0.00000
C          0.12030       -4.76810        0.00000
C          0.45590       -4.01440        0.00000
N          0.30200       -2.50700        0.00000
C          0.04700       -1.72240        0.00000
N         -0.73760       -1.46750        0.00000
C         -0.90910       -0.66050        0.00000
F         -1.08060        0.14650        0.00000
F         -1.71610       -0.83200        0.00000
F         -0.10210       -0.48900        0.00000
C         -0.18300       -3.17450        0.00000
C         -1.00340       -3.08820        0.00000
C         -1.48840       -3.75570        0.00000
C         -1.15280       -4.50940        0.00000
C         -0.33230       -4.59560        0.00000
C          0.15260       -3.92820        0.00000
