23
fluchloralin
C          0.71450       -2.06250        0.00000
C          1.42890       -2.47500        0.00000
C          1.42890       -3.30000        0.00000
N          2.14340       -3.71250        0.00000
C          2.85790       -3.30000        0.00000
C          2.85790       -2.47500        0.00000
Cl         3.57240       -2.06250        0.00000
C          2.14340       -4.53750        0.00000
C          2.85790       -4.95000        0.00000
C          2.85790       -5.77500        0.00000
C          2.14340       -6.18750        0.00000
C          1.42890       -5.77500        0.00000
C          1.42890       -4.95000        0.00000
N          0.71450       -4.53750        0.00000
O          0.71450       -3.71250        0.00000
O          0.00000       -4.95000        0.00000
C          2.14340       -7.01250        0.00000
F          2.14340       -7.83750        0.00000
F          1.31840       -7.01250        0.00000
F          2.96840       -7.01250        0.00000
N          3.57240       -4.53750        0.00000
O          4.28680       -4.95000        0.00000
O          3.57240       -3.71250        0.00000
