33
flufenoxuron
F         -0.71450       -3.71250        0.00000
C         -0.71450       -2.88750        0.00000
C         -1.42890       -2.47500        0.00000
C         -1.42890       -1.65000        0.00000
O         -2.14340       -1.23750        0.00000
C         -2.85790       -1.65000        0.00000
C         -2.85790       -2.47500        0.00000
C         -3.57240       -2.88750        0.00000
C         -4.28680       -2.47500        0.00000
C         -4.28680       -1.65000        0.00000
C         -3.57240       -1.23750        0.00000
Cl        -3.57240       -0.41250        0.00000
C         -5.00130       -2.88750        0.00000
F         -5.71580       -3.30000        0.00000
F         -4.58880       -3.60200        0.00000
F         -5.41380       -2.17300        0.00000
C         -0.71450       -1.23750        0.00000
C          0.00000       -1.65000        0.00000
C          0.00000       -2.47500        0.00000
N          0.71450       -2.88750        0.00000
C          1.42890       -2.47500        0.00000
O          1.42890       -1.65000        0.00000
N          2.14340       -2.88750        0.00000
C          2.85790       -2.47500        0.00000
O          2.85790       -1.65000        0.00000
C          3.57240       -2.88750        0.00000
C          4.28680       -2.47500        0.00000
F          4.28680       -1.65000        0.00000
C          5.00130       -2.88750        0.00000
C          5.00130       -3.71250        0.00000
C          4.28680       -4.12500        0.00000
C          3.57240       -3.71250        0.00000
F          2.85790       -4.12500        0.00000
