23
fluorodifen
O          1.42890        0.00000        0.00000
N          2.14340       -0.41250        0.00000
O          2.85790        0.00000        0.00000
C          2.14340       -1.23750        0.00000
C          2.85790       -1.65000        0.00000
C          2.85790       -2.47500        0.00000
C          2.14340       -2.88750        0.00000
O          2.14340       -3.71250        0.00000
C          1.42890       -4.12500        0.00000
C          1.42890       -4.95000        0.00000
C          0.71450       -5.36250        0.00000
C          0.00000       -4.95000        0.00000
C          0.00000       -4.12500        0.00000
C          0.71450       -3.71250        0.00000
C         -0.71450       -5.36250        0.00000
F         -1.42890       -5.77500        0.00000
F         -1.12700       -4.64800        0.00000
F         -0.30200       -6.07700        0.00000
N          2.14340       -5.36250        0.00000
O          2.14340       -6.18750        0.00000
O          2.85790       -4.95000        0.00000
C          1.42890       -2.47500        0.00000
C          1.42890       -1.65000        0.00000
