20
flurazole
F          2.75120       -0.88660        0.00000
C          2.75120       -1.71160        0.00000
F          1.92620       -1.71160        0.00000
F          3.57620       -1.71160        0.00000
C          2.75120       -2.53660        0.00000
C          3.41860       -3.02150        0.00000
S          3.16370       -3.80620        0.00000
C          2.33870       -3.80620        0.00000
Cl         1.85380       -4.47360        0.00000
N          2.08370       -3.02150        0.00000
C          4.20320       -2.76660        0.00000
O          4.37480       -1.95960        0.00000
O          4.81630       -3.31860        0.00000
C          5.60100       -3.06370        0.00000
C          6.21400       -3.61570        0.00000
C          6.99870       -3.36080        0.00000
C          7.61180       -3.91280        0.00000
C          7.44020       -4.71980        0.00000
C          6.65560       -4.97470        0.00000
C          6.04250       -4.42270        0.00000
