25
fluthiacet-methyl
C          5.49710       -1.70520        0.00000
O          6.21160       -1.29270        0.00000
C          6.92600       -1.70520        0.00000
O          6.92600       -2.53020        0.00000
C          7.64050       -1.29270        0.00000
S          8.35500       -1.70520        0.00000
C          9.06940       -1.29270        0.00000
C          9.06940       -0.46770        0.00000
Cl         8.35500       -0.05520        0.00000
C          9.78390       -0.05520        0.00000
C         10.49840       -0.46770        0.00000
F         11.21280       -0.05520        0.00000
C         10.49840       -1.29270        0.00000
C          9.78390       -1.70520        0.00000
N         11.21280       -1.70520        0.00000
C         11.92730       -1.29270        0.00000
S         12.01360       -0.47220        0.00000
C         12.82050       -0.30070        0.00000
O         13.15610        0.45300        0.00000
N         13.23300       -1.01520        0.00000
C         14.04000       -1.18670        0.00000
C         14.29490       -1.97130        0.00000
C         13.74290       -2.58440        0.00000
C         12.93590       -2.41290        0.00000
N         12.68100       -1.62830        0.00000
