24
fluthiamide
C          0.41250       -2.36450        0.00000
C          0.00000       -1.65000        0.00000
C         -0.82500       -1.65000        0.00000
N          0.41250       -0.93550        0.00000
C          1.23750       -0.93550        0.00000
O          1.65000       -0.22110        0.00000
C          1.65000       -1.65000        0.00000
O          2.47500       -1.65000        0.00000
C          2.88750       -2.36450        0.00000
N          3.70800       -2.45070        0.00000
N          3.87950       -3.25770        0.00000
C          3.16500       -3.67020        0.00000
S          2.55190       -3.11810        0.00000
C          3.07880       -4.49070        0.00000
F          2.99260       -5.31110        0.00000
F          3.89930       -4.57690        0.00000
F          2.25830       -4.40440        0.00000
C          0.00000       -0.22110        0.00000
C         -0.82500       -0.22110        0.00000
C         -1.23750        0.49340        0.00000
C         -0.82500        1.20790        0.00000
F         -1.23750        1.92240        0.00000
C          0.00000        1.20790        0.00000
C          0.41250        0.49340        0.00000
