35
Fluvalinate
C         -2.14340       -3.93360        0.00000
C         -2.55590       -4.64800        0.00000
C         -3.38090       -4.64800        0.00000
C         -2.14340       -5.36250        0.00000
N         -2.55590       -6.07700        0.00000
C         -3.38090       -6.07700        0.00000
C         -3.79340       -6.79140        0.00000
Cl        -3.38090       -7.50590        0.00000
C         -4.61840       -6.79140        0.00000
C         -5.03090       -6.07700        0.00000
C         -4.61840       -5.36250        0.00000
C         -3.79340       -5.36250        0.00000
C         -5.85590       -6.07700        0.00000
F         -6.68090       -6.07700        0.00000
F         -5.85590       -6.90200        0.00000
F         -5.85590       -5.25200        0.00000
C         -1.31840       -5.36250        0.00000
O         -0.90590       -6.07700        0.00000
O         -0.90590       -4.64800        0.00000
C         -0.08090       -4.64800        0.00000
C          0.33160       -5.36250        0.00000
N          0.74410       -6.07700        0.00000
C          0.33160       -3.93360        0.00000
C         -0.08090       -3.21910        0.00000
C          0.33160       -2.50460        0.00000
C          1.15660       -2.50460        0.00000
C          1.56910       -3.21910        0.00000
O          2.39410       -3.21910        0.00000
C          2.80660       -2.50460        0.00000
C          2.39410       -1.79010        0.00000
C          2.80660       -1.07570        0.00000
C          3.63160       -1.07570        0.00000
C          4.04410       -1.79010        0.00000
C          3.63160       -2.50460        0.00000
C          1.15660       -3.93360        0.00000
