28
fomesafen
C          1.42890        1.65000        0.00000
S          1.42890        0.82500        0.00000
O          0.60390        0.82500        0.00000
O          2.25390        0.82500        0.00000
N          1.42890        0.00000        0.00000
C          2.14340       -0.41250        0.00000
O          2.85790        0.00000        0.00000
C          2.14340       -1.23750        0.00000
C          2.85790       -1.65000        0.00000
C          2.85790       -2.47500        0.00000
O          3.57240       -2.88750        0.00000
C          3.57240       -3.71250        0.00000
C          4.28680       -4.12500        0.00000
Cl         5.00130       -3.71250        0.00000
C          4.28680       -4.95000        0.00000
C          3.57240       -5.36250        0.00000
C          2.85790       -4.95000        0.00000
C          2.85790       -4.12500        0.00000
C          3.57240       -6.18750        0.00000
F          3.57240       -7.01250        0.00000
F          2.74740       -6.18750        0.00000
F          4.39740       -6.18750        0.00000
C          2.14340       -2.88750        0.00000
C          1.42890       -2.47500        0.00000
C          1.42890       -1.65000        0.00000
N          0.71450       -1.23750        0.00000
O          0.71450       -0.41250        0.00000
O          0.00000       -1.65000        0.00000
