9
formaldehyde methanearsonic acid
C          2.06250       -1.53950        0.00000
As         2.06250       -0.71450        0.00000
O          2.88750       -0.71450        0.00000
O          1.23750       -0.71450        0.00000
O          2.06250        0.11050        0.00000
C          3.30000       -1.42890        0.00000
O          4.12500       -1.42890        0.00000
C          0.82500        0.00000        0.00000
O          0.00000        0.00000        0.00000
