26
furathiocarb
C         -3.57240       -6.18750        0.00000
C         -2.85790       -5.77500        0.00000
C         -2.14340       -6.18750        0.00000
C         -1.42890       -5.77500        0.00000
O         -0.71450       -6.18750        0.00000
C          0.00000       -5.77500        0.00000
O          0.00000       -4.95000        0.00000
N          0.71450       -6.18750        0.00000
C          0.71450       -7.01250        0.00000
S          1.42890       -5.77500        0.00000
N          2.14340       -6.18750        0.00000
C          2.14340       -7.01250        0.00000
C          2.85790       -5.77500        0.00000
O          2.85790       -4.95000        0.00000
O          3.57240       -6.18750        0.00000
C          4.28680       -5.77500        0.00000
C          4.28680       -4.95000        0.00000
C          5.00130       -4.53750        0.00000
C          5.71580       -4.95000        0.00000
C          5.71580       -5.77500        0.00000
C          5.00130       -6.18750        0.00000
O          5.17280       -6.99450        0.00000
C          5.99330       -7.08070        0.00000
C          5.82180       -7.88770        0.00000
C          6.77790       -7.33560        0.00000
C          6.32890       -6.32700        0.00000
