11
gamma-Nonalactone
C         -0.68650       -2.43730        0.00000
C          0.02800       -2.02480        0.00000
C          0.74250       -2.43730        0.00000
C          1.45690       -2.02480        0.00000
C          2.17140       -2.43730        0.00000
C          2.88590       -2.02480        0.00000
C          2.97210       -1.20430        0.00000
C          3.77910       -1.03280        0.00000
C          4.19160       -1.74720        0.00000
O          5.01210       -1.83350        0.00000
O          3.63960       -2.36030        0.00000
