33
Gentamicin
C         -2.85790        0.82500        0.00000
N         -2.85790        0.00000        0.00000
C         -3.57240       -0.41250        0.00000
C         -4.28680        0.00000        0.00000
C         -3.57240       -1.23750        0.00000
C         -2.85790       -1.65000        0.00000
C         -2.85790       -2.47500        0.00000
C         -3.57240       -2.88750        0.00000
N         -3.57240       -3.71250        0.00000
C         -4.28680       -2.47500        0.00000
O         -5.00130       -2.88750        0.00000
C         -5.71580       -2.47500        0.00000
C         -5.71580       -1.65000        0.00000
N         -5.00130       -1.23750        0.00000
C         -6.43020       -1.23750        0.00000
C         -7.14470       -1.65000        0.00000
N         -7.85920       -1.23750        0.00000
C         -7.14470       -2.47500        0.00000
O         -7.85920       -2.88750        0.00000
C         -7.85920       -3.71250        0.00000
O         -7.14470       -4.12500        0.00000
C         -7.14470       -4.95000        0.00000
C         -7.85920       -5.36250        0.00000
C         -7.32890       -5.99450        0.00000
O         -8.38950       -5.99450        0.00000
C         -8.57370       -4.95000        0.00000
N         -9.28810       -5.36250        0.00000
C        -10.00260       -4.95000        0.00000
C         -8.57370       -4.12500        0.00000
O         -9.28810       -3.71250        0.00000
C         -6.43020       -2.88750        0.00000
O         -6.43020       -3.71250        0.00000
O         -4.28680       -1.65000        0.00000
