15
glyphosine
O         -1.31840       -1.23750        0.00000
C         -0.60390       -0.82500        0.00000
O         -0.60390        0.00000        0.00000
C          0.11050       -1.23750        0.00000
N          0.82500       -0.82500        0.00000
C          1.53950       -1.23750        0.00000
P          1.53950       -2.06250        0.00000
O          0.71450       -2.06250        0.00000
O          2.36450       -2.06250        0.00000
O          1.53950       -2.88750        0.00000
C          0.82500        0.00000        0.00000
P          1.53950        0.41250        0.00000
O          1.95200       -0.30200        0.00000
O          1.12700        1.12700        0.00000
O          2.25390        0.82500        0.00000
