15
heptenophos
C          0.20860       -3.33670        0.00000
O          0.79200       -2.75330        0.00000
P          0.57850       -1.95640        0.00000
O          1.37540       -1.74290        0.00000
O         -0.21840       -2.17000        0.00000
C         -0.80180       -1.58660        0.00000
O          0.36490       -1.15950        0.00000
C          0.94830       -0.57620        0.00000
C          0.94830        0.24880        0.00000
Cl         0.36490        0.83220        0.00000
C          1.77330        0.24880        0.00000
C          2.55790        0.50380        0.00000
C          3.04280       -0.16370        0.00000
C          2.55790       -0.83110        0.00000
C          1.77330       -0.57620        0.00000
