20
Hexaconazole
C          2.31550       -2.04940        0.00000
C          1.49050       -2.04940        0.00000
C          1.07800       -1.33490        0.00000
C          0.25300       -1.33490        0.00000
C         -0.15950       -0.62040        0.00000
O          0.55500       -0.20790        0.00000
C         -0.87390       -1.03290        0.00000
N         -0.87390       -1.85790        0.00000
C         -0.20650       -2.34290        0.00000
N         -0.46140       -3.12750        0.00000
C         -1.28640       -3.12750        0.00000
N         -1.54140       -2.34290        0.00000
C         -0.57200        0.09400        0.00000
C         -1.39700        0.09400        0.00000
Cl        -1.80950       -0.62040        0.00000
C         -1.80950        0.80850        0.00000
C         -1.39700        1.52300        0.00000
Cl        -1.80950        2.23740        0.00000
C         -0.57200        1.52300        0.00000
C         -0.15950        0.80850        0.00000
