27
imazosulfuron
C         -3.95800        1.78330        0.00000
O         -3.15110        1.61180        0.00000
C         -2.59900        2.22480        0.00000
C         -2.85400        3.00950        0.00000
C         -2.30200        3.62260        0.00000
O         -2.55690        4.40720        0.00000
C         -2.00490        5.02030        0.00000
N         -1.49500        3.45100        0.00000
C         -1.24000        2.66640        0.00000
N         -0.43310        2.49490        0.00000
C         -0.17810        1.71030        0.00000
O         -0.73020        1.09720        0.00000
N          0.62880        1.53870        0.00000
S          0.88380        0.75410        0.00000
O          0.09920        0.49920        0.00000
O          1.66840        1.00910        0.00000
C          1.13870       -0.03050        0.00000
N          1.92330       -0.28540        0.00000
C          2.63780        0.12710        0.00000
C          3.35230       -0.28540        0.00000
C          3.35230       -1.11040        0.00000
C          2.63780       -1.52290        0.00000
C          1.92330       -1.11040        0.00000
N          1.13870       -1.36540        0.00000
C          0.65380       -0.69790        0.00000
Cl        -0.17120       -0.69790        0.00000
N         -1.79210        2.05330        0.00000
