25
imibenconazole
Cl         0.10670        3.23840        0.00000
C          0.10670        2.41340        0.00000
C          0.82120        2.00090        0.00000
C          0.82120        1.17590        0.00000
C          0.10670        0.76340        0.00000
C          0.10670       -0.06160        0.00000
S         -0.60780       -0.47410        0.00000
C         -0.60780       -1.29910        0.00000
C          0.10670       -1.71160        0.00000
N          0.10670       -2.53660        0.00000
C          0.77410       -3.02150        0.00000
N          0.51920       -3.80620        0.00000
C         -0.30580       -3.80620        0.00000
N         -0.56070       -3.02150        0.00000
N         -1.32220       -1.71160        0.00000
C         -2.03670       -1.29910        0.00000
C         -2.75120       -1.71160        0.00000
C         -3.46560       -1.29910        0.00000
C         -3.46560       -0.47410        0.00000
Cl        -4.18010       -0.06160        0.00000
C         -2.75120       -0.06160        0.00000
C         -2.03670       -0.47410        0.00000
Cl        -1.32220       -0.06160        0.00000
C         -0.60780        1.17590        0.00000
C         -0.60780        2.00090        0.00000
