17
imidacloprid
O          2.75120        0.76340        0.00000
N          2.75120       -0.06160        0.00000
O          3.46560       -0.47410        0.00000
N          2.03670       -0.47410        0.00000
C          2.03670       -1.29910        0.00000
N          2.70410       -1.78400        0.00000
C          2.44920       -2.56870        0.00000
C          1.62420       -2.56870        0.00000
N          1.36930       -1.78400        0.00000
C          0.58460       -1.52910        0.00000
C          0.41310       -0.72210        0.00000
C         -0.37150       -0.46720        0.00000
C         -0.54300        0.33980        0.00000
C          0.07010        0.89180        0.00000
Cl        -0.10150        1.69880        0.00000
N          0.85470        0.63690        0.00000
C          1.02620       -0.17010        0.00000
