23
InChI=1S/C18H19NO4/c1-13-8-4-7-11-16(13)23-12-14-9-5-6-10-15(14)17(19-22-3)18(20)21-2/h4-11H,12H2,1-3H3/b19-17+
C         -1.42890        4.95000        0.00000
C         -2.85790        4.95000        0.00000
C         -3.57240        8.66250        0.00000
C          0.00000        3.30000        0.00000
C          0.00000        8.25000        0.00000
C         -0.71450        8.66250        0.00000
C          0.71450        3.71250        0.00000
C         -0.71450        3.71250        0.00000
C          0.00000        7.42500        0.00000
C         -1.42890        8.25000        0.00000
C          0.71450        4.53750        0.00000
C         -0.71450        6.18750        0.00000
C         -0.71450        4.53750        0.00000
C         -0.71450        7.01250        0.00000
C         -1.42890        7.42500        0.00000
C          0.00000        4.95000        0.00000
C         -2.14340        7.01250        0.00000
C         -2.14340        6.18750        0.00000
N         -2.85790        7.42500        0.00000
O         -1.42890        5.77500        0.00000
O         -2.85790        5.77500        0.00000
O         -2.85790        8.25000        0.00000
O          0.00000        5.77500        0.00000
