19
InChI=1S/C14H21NO4/c1-5-17-12-8-7-11(9-13(12)18-6-2)15-14(16)19-10(3)4/h7-10H,5-6H2,1-4H3,(H,15,16)
C          0.00000        3.30000        0.00000
C         -2.14340        1.23750        0.00000
C         -0.71450       -3.71250        0.00000
C         -1.42890       -2.47500        0.00000
C          0.00000        2.47500        0.00000
C         -1.42890        0.82500        0.00000
C          1.42890        0.00000        0.00000
C          1.42890        0.82500        0.00000
C          0.00000        0.00000        0.00000
C         -0.71450       -2.88750        0.00000
C          0.71450       -0.41250        0.00000
C          0.71450        1.23750        0.00000
C          0.00000        0.82500        0.00000
C          0.00000       -1.65000        0.00000
N          0.71450       -1.23750        0.00000
O         -0.71450       -1.23750        0.00000
O          0.71450        2.06250        0.00000
O         -0.71450        1.23750        0.00000
O          0.00000       -2.47500        0.00000
