21
InChI=1/C15H21NO4/c1-10-7-6-8-11(2)14(10)16(13(17)9-19-4)12(3)15(18)20-5/h6-8,12H,9H2,1-5H3/t12-/m1/s1
C          4.28680        3.30000        0.00000
C          7.14470        3.30000        0.00000
C          4.28680        2.47500        0.00000
C          7.14470        0.00000        0.00000
C          3.57240        1.23750        0.00000
C          5.71580        4.95000        0.00000
C          5.00130        4.53750        0.00000
C          6.43020        4.53750        0.00000
C          6.43020        1.23750        0.00000
C          5.00130        3.71250        0.00000
C          6.43020        3.71250        0.00000
C          5.00130        2.06250        0.00000
C          6.43020        2.06250        0.00000
C          5.71580        3.30000        0.00000
C          5.00130        1.23750        0.00000
N          5.71580        2.47500        0.00000
O          7.14470        2.47500        0.00000
O          5.71580        0.82500        0.00000
O          7.14470        0.82500        0.00000
O          4.28680        0.82500        0.00000
H          4.28680        1.65000        0.00000
