21
InChI=1S/C13H8Cl2N2O4/c14-7-1-4-12(18)9(5-7)13(19)16-11-3-2-8(17(20)21)6-10(11)15/h1-6,18H,(H,16,19)
C          0.00000        4.95000        0.00000
C          1.42890        0.00000        0.00000
C          1.42890        0.82500        0.00000
C         -0.71450        4.53750        0.00000
C          0.71450        3.71250        0.00000
C          0.00000        0.00000        0.00000
C          0.71450        4.53750        0.00000
C          0.71450       -0.41250        0.00000
C          0.00000        3.30000        0.00000
C          0.00000        0.82500        0.00000
C          0.71450        1.23750        0.00000
C         -0.71450        3.71250        0.00000
C          0.00000        2.47500        0.00000
Cl         1.42890        4.95000        0.00000
Cl        -0.71450        1.23750        0.00000
N          0.71450        2.06250        0.00000
N          0.71450       -1.23750        0.00000
O         -1.42890        3.30000        0.00000
O         -0.71450        2.06250        0.00000
O          1.42890       -1.65000        0.00000
O          0.00000       -1.65000        0.00000
