24
indanofan
C          0.21220        0.66110        0.00000
C          0.04070       -0.14590        0.00000
C          0.65380       -0.69790        0.00000
C          0.04070       -1.25000        0.00000
C         -0.74390       -0.99500        0.00000
C         -1.39400       -0.48710        0.00000
O         -0.62910       -0.17810        0.00000
C         -1.13120       -1.72350        0.00000
C         -0.69400       -2.42310        0.00000
C         -1.08140       -3.15150        0.00000
C         -1.90590       -3.18030        0.00000
C         -2.34300       -2.48070        0.00000
Cl        -3.16750       -2.50950        0.00000
C         -1.95570       -1.75230        0.00000
C          1.13870       -0.03050        0.00000
O          0.88380        0.75410        0.00000
C          1.92330       -0.28540        0.00000
C          2.63780        0.12710        0.00000
C          3.35230       -0.28540        0.00000
C          3.35230       -1.11040        0.00000
C          2.63780       -1.52290        0.00000
C          1.92330       -1.11040        0.00000
C          1.13870       -1.36540        0.00000
O          0.88380       -2.15000        0.00000
