16
indeno[1,2-e][1,3,4]oxadiazine-4a(3H)-carboxylate
O          3.55750        2.08750        0.00000
C          2.77290        1.83260        0.00000
O          2.15980        2.38460        0.00000
C          2.60140        1.02560        0.00000
O          3.40840        1.19710        0.00000
C          3.96040        0.58400        0.00000
N          3.70540       -0.20060        0.00000
N          2.89850       -0.37210        0.00000
C          2.34640        0.24100        0.00000
C          1.52140        0.24100        0.00000
C          0.96940       -0.37210        0.00000
C          0.16240       -0.20060        0.00000
C         -0.09250        0.58400        0.00000
C          0.45950        1.19710        0.00000
C          1.26650        1.02560        0.00000
C          1.93390        1.51050        0.00000
