23
ipconazole
C          1.01580       -0.72210        0.00000
C          0.84430       -1.52910        0.00000
C          1.45740       -2.08110        0.00000
C          0.05970       -1.78400        0.00000
C         -0.19530       -2.56870        0.00000
C         -1.02030       -2.56870        0.00000
C         -1.27520       -1.78400        0.00000
C         -2.05980       -1.52910        0.00000
C         -2.67290       -2.08110        0.00000
C         -2.50140       -2.88810        0.00000
C         -3.11450       -3.44010        0.00000
C         -3.89910       -3.18520        0.00000
Cl        -4.51220       -3.73720        0.00000
C         -4.07060       -2.37820        0.00000
C         -3.45750       -1.82620        0.00000
C         -0.60780       -1.29910        0.00000
O         -1.01280       -0.58040        0.00000
C         -0.20280       -0.58040        0.00000
N         -0.62270        0.12980        0.00000
C         -0.29510        0.88690        0.00000
N         -0.91390        1.43250        0.00000
C         -1.62400        1.01250        0.00000
N         -1.44410        0.20740        0.00000
