18
isazofos
C         -1.57570        4.00180        0.00000
C         -0.86120        3.58930        0.00000
O         -0.86120        2.76430        0.00000
P         -0.14670        2.35180        0.00000
S         -0.55920        1.63730        0.00000
O          0.26580        3.06630        0.00000
C          1.09080        3.06630        0.00000
C          1.50330        2.35180        0.00000
O          0.56780        1.93930        0.00000
C          0.56780        1.11430        0.00000
N          1.23520        0.62940        0.00000
N          0.98030       -0.15530        0.00000
C          1.46520       -0.82270        0.00000
C          2.28570       -0.73650        0.00000
C          1.12960       -1.57640        0.00000
C          0.15530       -0.15530        0.00000
Cl        -0.32970       -0.82270        0.00000
N         -0.09970        0.62940        0.00000
