26
isopropyl 2-chloro-5-(1,2,3,6-tetrahydro-3-methyl-2,6-dioxo-4-trifluoromethylpyrimidin-1-yl)benzoate
C          2.14340        1.23750        0.00000
C          1.42890        0.82500        0.00000
C          0.71450        1.23750        0.00000
O          1.42890        0.00000        0.00000
C          0.71450       -0.41250        0.00000
O          0.00000        0.00000        0.00000
C          0.71450       -1.23750        0.00000
C          1.42890       -1.65000        0.00000
Cl         2.14340       -1.23750        0.00000
C          1.42890       -2.47500        0.00000
C          0.71450       -2.88750        0.00000
C          0.00000       -2.47500        0.00000
C          0.00000       -1.65000        0.00000
N         -0.71450       -2.88750        0.00000
C         -0.71450       -3.71250        0.00000
O          0.00000       -4.12500        0.00000
C         -1.42890       -4.12500        0.00000
C         -2.14340       -3.71250        0.00000
N         -2.14340       -2.88750        0.00000
C         -2.85790       -2.47500        0.00000
C         -1.42890       -2.47500        0.00000
O         -1.42890       -1.65000        0.00000
C         -2.85790       -4.12500        0.00000
F         -3.57240       -4.53750        0.00000
F         -3.27040       -3.41050        0.00000
F         -2.44540       -4.83950        0.00000
