8
isopropylamine salt isopropylamine salt
C          0.41250        0.71450        0.00000
C          0.00000        0.00000        0.00000
C          0.41250       -0.71450        0.00000
N         -0.82500        0.00000        0.00000
C          3.88930        0.71450        0.00000
C          3.47680        0.00000        0.00000
C          3.88930       -0.71450        0.00000
N          2.65180        0.00000        0.00000
