25
isopropyl 5-[4-bromo-1-methyl-5-(trifluoromethyl)pyrazol-3-yl]-2-chloro-4-fluorobenzoate
C          0.60780        6.82770        0.00000
C          0.60780        6.00270        0.00000
C         -0.10670        5.59020        0.00000
O          1.32220        5.59020        0.00000
C          1.32220        4.76520        0.00000
O          0.60780        4.35270        0.00000
C          2.03670        4.35270        0.00000
C          2.75120        4.76520        0.00000
Cl         2.75120        5.59020        0.00000
C          3.46560        4.35270        0.00000
C          3.46560        3.52770        0.00000
F          4.18010        3.11520        0.00000
C          2.75120        3.11520        0.00000
C          2.03670        3.52770        0.00000
C          2.75120        2.29020        0.00000
N          3.41860        1.80530        0.00000
N          3.16370        1.02060        0.00000
C          3.64860        0.35320        0.00000
C          2.33870        1.02060        0.00000
C          2.08370        1.80530        0.00000
Br         1.29910        2.06020        0.00000
C          1.85380        0.35320        0.00000
F          1.36880       -0.31420        0.00000
F          1.18630        0.83810        0.00000
F          2.52120       -0.13170        0.00000
