24
isoxaflutole
C          5.61150        3.26470        0.00000
S          4.99840        2.71260        0.00000
O          4.44630        3.32570        0.00000
O          5.55040        2.09960        0.00000
C          4.38530        2.16060        0.00000
C          4.55680        1.35360        0.00000
C          3.94370        0.80160        0.00000
C          3.15910        1.05660        0.00000
C          2.98750        1.86350        0.00000
C          3.60060        2.41560        0.00000
C          3.42910        3.22250        0.00000
O          4.04220        3.77460        0.00000
C          2.64450        3.47750        0.00000
C          1.97710        2.99250        0.00000
O          1.30960        3.47750        0.00000
N          1.56460        4.26210        0.00000
C          2.38960        4.26210        0.00000
C          1.97710        2.16750        0.00000
C          2.38960        1.45310        0.00000
C          1.56460        1.45310        0.00000
C          4.11520       -0.00540        0.00000
F          4.28680       -0.81230        0.00000
F          3.30830       -0.17690        0.00000
F          4.92220        0.16620        0.00000
