24
isoxaben
C          2.14340       -0.41250        0.00000
C          1.42890       -0.82500        0.00000
C          1.42890       -1.65000        0.00000
C          0.60390       -1.65000        0.00000
C          2.25390       -1.65000        0.00000
C          2.66640       -2.36450        0.00000
C          1.42890       -2.47500        0.00000
N          2.09640       -2.95990        0.00000
O          1.84140       -3.74450        0.00000
C          1.01640       -3.74450        0.00000
N          0.53150       -4.41200        0.00000
C          0.86710       -5.16570        0.00000
O          1.68760       -5.25190        0.00000
C          0.38220       -5.83310        0.00000
C          0.71770       -6.58680        0.00000
O          1.53820       -6.67300        0.00000
C          2.02310       -6.00560        0.00000
C          0.23280       -7.25420        0.00000
C         -0.58770       -7.16800        0.00000
C         -0.92320       -6.41430        0.00000
C         -0.43830       -5.74690        0.00000
O         -0.77390       -4.99320        0.00000
C         -0.28900       -4.32570        0.00000
C          0.76150       -2.95990        0.00000
