27
Jasmolin II
C          2.31750       -2.91810        0.00000
C          1.98190       -2.16440        0.00000
C          2.46680       -1.49700        0.00000
C          2.13130       -0.74330        0.00000
C          1.31080       -0.65710        0.00000
C          0.97520        0.09660        0.00000
C          0.16820        0.26810        0.00000
C         -0.44480       -0.28390        0.00000
C          0.08200        1.08860        0.00000
O         -0.63250        1.50110        0.00000
C         -1.34690        1.08860        0.00000
O         -1.34690        0.26360        0.00000
C         -2.06140        1.50110        0.00000
C         -2.88640        1.50110        0.00000
C         -3.60090        1.08860        0.00000
C         -4.31530        1.50110        0.00000
C         -4.31530        2.32610        0.00000
C         -5.02980        1.08860        0.00000
O         -5.02980        0.26360        0.00000
O         -5.74430        1.50110        0.00000
C         -6.45880        1.08860        0.00000
C         -2.47390        2.21560        0.00000
C         -2.94710        2.89140        0.00000
C         -2.00070        2.89140        0.00000
C          0.83570        1.42420        0.00000
C          1.38770        0.81110        0.00000
O          2.20820        0.89730        0.00000
