16
Kaptan
Cl        -0.99620       -2.12690        0.00000
C         -0.58370       -1.41240        0.00000
Cl         0.13080       -1.82490        0.00000
Cl        -1.29820       -0.99990        0.00000
S         -0.17120       -0.69790        0.00000
N          0.65380       -0.69790        0.00000
C          1.13870       -0.03050        0.00000
O          0.88380        0.75410        0.00000
C          1.92330       -0.28540        0.00000
C          2.63780        0.12710        0.00000
C          3.35230       -0.28540        0.00000
C          3.35230       -1.11040        0.00000
C          2.63780       -1.52290        0.00000
C          1.92330       -1.11040        0.00000
C          1.13870       -1.36540        0.00000
O          0.88380       -2.15000        0.00000
