21
mefenacet
C          2.64200       -3.97210        0.00000
N          2.64200       -3.14710        0.00000
C          3.35650       -2.73460        0.00000
O          3.35650       -1.90960        0.00000
C          4.07090       -3.14710        0.00000
O          4.78540       -2.73460        0.00000
C          5.49990       -3.14710        0.00000
N          6.25360       -2.81160        0.00000
C          6.80560       -3.42470        0.00000
C          7.63060       -3.42470        0.00000
C          8.04310       -4.13920        0.00000
C          7.63060       -4.85360        0.00000
C          6.80560       -4.85360        0.00000
C          6.39310       -4.13920        0.00000
S          5.58610       -3.96760        0.00000
C          1.92750       -2.73460        0.00000
C          1.21310       -3.14710        0.00000
C          0.49860       -2.73460        0.00000
C          0.49860       -1.90960        0.00000
C          1.21310       -1.49710        0.00000
C          1.92750       -1.90960        0.00000
