16
merphos
C          2.85790       -8.63290        0.00000
C          2.85790       -7.80790        0.00000
C          2.14340       -7.39540        0.00000
C          2.14340       -6.57040        0.00000
S          1.42890       -6.15790        0.00000
P          1.42890       -5.33290        0.00000
S          0.71450       -4.92040        0.00000
C          0.71450       -4.09540        0.00000
C          0.00000       -3.68290        0.00000
C          0.00000       -2.85790        0.00000
C         -0.71450       -2.44540        0.00000
S          2.14340       -4.92040        0.00000
C          2.14340       -4.09540        0.00000
C          2.85790       -3.68290        0.00000
C          2.85790       -2.85790        0.00000
C          3.57240       -2.44540        0.00000
