20
Metalaxyl
C          2.14340       -2.06250        0.00000
O          2.14340       -2.88750        0.00000
C          2.85790       -3.30000        0.00000
C          2.85790       -4.12500        0.00000
O          2.14340       -4.53750        0.00000
N          3.57240       -4.53750        0.00000
C          4.28680       -4.12500        0.00000
C          5.00130       -4.53750        0.00000
C          4.28680       -3.30000        0.00000
O          3.57240       -2.88750        0.00000
O          5.00130       -2.88750        0.00000
C          5.71580       -3.30000        0.00000
C          3.57240       -5.36250        0.00000
C          4.28680       -5.77500        0.00000
C          5.00130       -5.36250        0.00000
C          4.28680       -6.60000        0.00000
C          3.57240       -7.01250        0.00000
C          2.85790       -6.60000        0.00000
C          2.85790       -5.77500        0.00000
C          2.14340       -5.36250        0.00000
