16
methyl methyl ((4-aminophenyl)sulfonyl)carbamate
N          0.71450        2.88750        0.00000
C          0.00000        3.30000        0.00000
O         -0.71450        2.88750        0.00000
O          0.00000        4.12500        0.00000
S          0.71450        2.06250        0.00000
O          1.53950        2.06250        0.00000
O         -0.11050        2.06250        0.00000
C          0.71450        1.23750        0.00000
C          1.42890        0.82500        0.00000
C          1.42890        0.00000        0.00000
C          0.71450       -0.41250        0.00000
C          0.00000        0.00000        0.00000
C          0.00000        0.82500        0.00000
N          0.71450       -1.23750        0.00000
C         -0.71450        4.53750        0.00000
C          1.42890        3.30000        0.00000
