29
methyl (2z)-2-(2-((6-(2-cyanophenoxy)pyrimidin-4- yl)oxy)phenyl)-3-methoxyacrylate
C          5.00130       -1.23750        0.00000
O          4.28680       -1.65000        0.00000
C          4.28680       -2.47500        0.00000
O          5.00130       -2.88750        0.00000
C          3.57240       -2.88750        0.00000
C          2.85790       -2.47500        0.00000
C          2.85790       -1.65000        0.00000
C          3.57240       -3.71250        0.00000
C          4.28680       -4.12500        0.00000
O          5.00130       -3.71250        0.00000
C          5.71580       -4.12500        0.00000
C          6.43020       -3.71250        0.00000
C          7.14470       -4.12500        0.00000
O          7.85920       -3.71250        0.00000
C          8.57370       -4.12500        0.00000
C          9.28810       -3.71250        0.00000
C         10.00260       -4.12500        0.00000
C         10.00260       -4.95000        0.00000
C          9.28810       -5.36250        0.00000
C          8.57370       -4.95000        0.00000
C          9.28810       -2.88750        0.00000
N          9.28810       -2.06250        0.00000
N          7.14470       -4.95000        0.00000
C          6.43020       -5.36250        0.00000
N          5.71580       -4.95000        0.00000
C          4.28680       -4.95000        0.00000
C          3.57240       -5.36250        0.00000
C          2.85790       -4.95000        0.00000
C          2.85790       -4.12500        0.00000
