10
Methomyl
C          3.30000        1.42890        0.00000
N          2.47500        1.42890        0.00000
C          2.06250        0.71450        0.00000
O          2.47500        0.00000        0.00000
O          1.23750        0.71450        0.00000
N          0.82500        0.00000        0.00000
C          0.00000        0.00000        0.00000
C         -0.41250        0.71450        0.00000
S         -0.41250       -0.71450        0.00000
C          0.00000       -1.42890        0.00000
