16
Methidathion
C         -0.14670        2.35180        0.00000
O          0.56780        1.93930        0.00000
C          0.56780        1.11430        0.00000
N          1.23520        0.62940        0.00000
N          0.98030       -0.15530        0.00000
C          1.46520       -0.82270        0.00000
S          2.28570       -0.73650        0.00000
P          2.77060       -1.40390        0.00000
S          2.10310       -1.88880        0.00000
O          3.25550       -2.07130        0.00000
C          4.07600       -1.98510        0.00000
O          3.43800       -0.91900        0.00000
C          4.19170       -1.25450        0.00000
C          0.15530       -0.15530        0.00000
O         -0.32970       -0.82270        0.00000
S         -0.09970        0.62940        0.00000
