6
methyl hydrogen sulfate
C          0.11050       -1.23750        0.00000
O          0.82500       -0.82500        0.00000
S          0.82500        0.00000        0.00000
O          0.82500        0.82500        0.00000
O          1.65000        0.00000        0.00000
O          0.00000        0.00000        0.00000
