28
methyl methyl [2-[[[1-(4-chlorophenyl)-1H-pyrazol-3- yl]oxy]methyl]phenyl]methoxycarbamate
N         -0.27790       -7.11530        0.00000
C         -0.99240       -7.52780        0.00000
O         -0.99240       -8.35280        0.00000
O         -1.70690       -7.11530        0.00000
O          0.43660       -7.52780        0.00000
C          1.15100       -7.11530        0.00000
C          1.86550       -7.52780        0.00000
C          2.58000       -7.11530        0.00000
C          3.29440       -7.52780        0.00000
C          3.29440       -8.35280        0.00000
C          2.58000       -8.76530        0.00000
C          1.86550       -8.35280        0.00000
C          2.58000       -6.29030        0.00000
O          3.29440       -5.87780        0.00000
N          3.70690       -3.78330        0.00000
N          3.96190       -4.56790        0.00000
C          3.29440       -5.05280        0.00000
C          2.62700       -4.56790        0.00000
C          2.88190       -3.78330        0.00000
C          4.19190       -3.11580        0.00000
C          3.85630       -2.36220        0.00000
C          4.34120       -1.69470        0.00000
C          5.16170       -1.78100        0.00000
C          5.49730       -2.53460        0.00000
C          5.01230       -3.20210        0.00000
Cl         5.64660       -1.11350        0.00000
C         -2.42130       -7.52780        0.00000
C         -0.27790       -6.29030        0.00000
