21
methyl 2-(4,5-dihydro-4-methyl-4-isopropyl-5-oxo-1H-imidazol-2-yl)-4-methylbenzoate
C         -4.53170       -0.31880        0.00000
O         -4.19620       -1.07240        0.00000
C         -3.37570       -1.15870        0.00000
O         -2.89080       -0.49120        0.00000
C         -3.04010       -1.91240        0.00000
C         -2.21970       -1.99860        0.00000
C         -1.88410       -2.75230        0.00000
C         -2.36900       -3.41970        0.00000
C         -2.03350       -4.17340        0.00000
C         -3.18950       -3.33350        0.00000
C         -3.52510       -2.57980        0.00000
C         -1.73470       -1.33120        0.00000
N         -1.98970       -0.54650        0.00000
C         -1.32220       -0.06160        0.00000
C         -1.87430        0.55150        0.00000
C         -0.77020        0.55150        0.00000
C         -1.02510        1.33610        0.00000
C          0.03680        0.38000        0.00000
C         -0.65480       -0.54650        0.00000
O          0.12980       -0.29160        0.00000
N         -0.90970       -1.33120        0.00000
