29
methyl 2-{2-[4-(3-trifluoromethylphenyl)-3-aza-2-oxa-4-pentenyl]-phenyl}-2-methoxyimino-acetate
O         -0.71450       -1.23750        0.00000
C          0.00000       -0.82500        0.00000
O          0.00000        0.00000        0.00000
C          0.71450       -1.23750        0.00000
N          1.42890       -0.82500        0.00000
O          1.42890        0.00000        0.00000
C          2.14340        0.41250        0.00000
C          0.71450       -2.06250        0.00000
C          1.42890       -2.47500        0.00000
C          1.42890       -3.30000        0.00000
C          0.71450       -3.71250        0.00000
C          0.00000       -3.30000        0.00000
C          0.00000       -2.47500        0.00000
C          2.14340       -2.06250        0.00000
O          2.14340       -1.23750        0.00000
N          2.85790       -0.82500        0.00000
C          3.57240       -1.23750        0.00000
C          4.28680       -0.82500        0.00000
C          3.57240       -2.06250        0.00000
C          4.28680       -2.47500        0.00000
C          4.28680       -3.30000        0.00000
C          3.57240       -3.71250        0.00000
C          2.85790       -3.30000        0.00000
C          2.85790       -2.47500        0.00000
C          5.00130       -3.71250        0.00000
F          5.71580       -4.12500        0.00000
F          4.58880       -4.42700        0.00000
F          5.41380       -2.99800        0.00000
C         -1.42890       -0.82500        0.00000
