11
methane sulfonanilide
C         -0.71450        2.88750        0.00000
S          0.00000        2.47500        0.00000
O         -0.41250        1.76050        0.00000
O          0.41250        3.18950        0.00000
N          0.71450        2.06250        0.00000
C          0.71450        1.23750        0.00000
C          1.42890        0.82500        0.00000
C          1.42890        0.00000        0.00000
C          0.71450       -0.41250        0.00000
C          0.00000        0.00000        0.00000
C          0.00000        0.82500        0.00000
