18
methoproptryne
C          1.42890       -4.12500        0.00000
O          2.14340       -3.71250        0.00000
C          2.85790       -4.12500        0.00000
C          3.57240       -3.71250        0.00000
C          4.28680       -4.12500        0.00000
N          5.00130       -3.71250        0.00000
C          5.71580       -4.12500        0.00000
N          6.43020       -3.71250        0.00000
C          7.14470       -4.12500        0.00000
N          7.85920       -3.71250        0.00000
C          8.57370       -4.12500        0.00000
C          9.28810       -3.71250        0.00000
C          8.57370       -4.95000        0.00000
N          7.14470       -4.95000        0.00000
C          6.43020       -5.36250        0.00000
S          6.43020       -6.18750        0.00000
C          5.71580       -6.60000        0.00000
N          5.71580       -4.95000        0.00000
