17
methylarsonate ammonium iron methylarsonate
As         0.00000        0.00000        0.00000
O          0.41250       -0.71450        0.00000
C         -0.41250        0.71450        0.00000
As        -0.71450       -1.23750        0.00000
O         -0.71450       -0.41250        0.00000
O         -0.71450       -2.06250        0.00000
O          0.11050       -1.23750        0.00000
C         -1.53950       -1.23750        0.00000
N          3.89660        0.00000        0.00000
Fe         6.01800        0.00000        0.00000
As         0.71450        1.23750        0.00000
O          0.71450        0.41250        0.00000
O          0.71450        2.06250        0.00000
O          1.53950        1.23750        0.00000
C         -0.11050        1.23750        0.00000
N          0.00000       -3.71250        0.00000
Fe         2.12140       -3.71250        0.00000
