26
Methyl 2-(4,6-dimethoxypyrimidin-2-yloxy)-6-[1-(methoxyimino)ethyl]benzoate
C          2.14340        3.71250        0.00000
C          2.14340        4.53750        0.00000
O          2.85790        4.95000        0.00000
O          1.42890        4.95000        0.00000
C          1.42890        3.30000        0.00000
C          1.42890        2.47500        0.00000
C          2.14340        2.06250        0.00000
C          2.85790        2.47500        0.00000
C          2.85790        3.30000        0.00000
C          3.57240        3.71250        0.00000
C          3.57240        4.53750        0.00000
N          4.28680        3.30000        0.00000
O          4.28680        2.47500        0.00000
C          5.00130        2.06250        0.00000
O          0.71450        3.71250        0.00000
C         -1.42890        2.47500        0.00000
C         -1.42890        3.30000        0.00000
N         -0.71450        3.71250        0.00000
C          0.00000        3.30000        0.00000
N          0.00000        2.47500        0.00000
C         -0.71450        2.06250        0.00000
O         -2.14340        3.71250        0.00000
C         -2.85790        3.30000        0.00000
O         -0.71450        1.23750        0.00000
C         -1.42890        0.82500        0.00000
C          2.85790        5.77500        0.00000
