17
methfuroxam
C          1.42890       -1.65000        0.00000
C          1.42890       -2.47500        0.00000
C          2.09640       -2.95990        0.00000
C          2.88100       -2.70500        0.00000
C          1.84140       -3.74450        0.00000
C          2.32640       -4.41200        0.00000
O          1.99080       -5.16570        0.00000
N          3.14680       -4.32570        0.00000
C          3.63180       -4.99320        0.00000
C          4.45220       -4.90700        0.00000
C          4.93720       -5.57440        0.00000
C          4.60160       -6.32810        0.00000
C          3.78110       -6.41430        0.00000
C          3.29620       -5.74690        0.00000
C          1.01640       -3.74450        0.00000
C          0.53150       -4.41200        0.00000
O          0.76150       -2.95990        0.00000
