22
methoprene
C          7.01250        3.57240        0.00000
O          6.60000        2.85790        0.00000
C          5.77500        2.85790        0.00000
C          5.77500        3.68290        0.00000
C          5.77500        2.03290        0.00000
C          4.95000        2.85790        0.00000
C          4.53750        2.14340        0.00000
C          3.71250        2.14340        0.00000
C          3.30000        1.42890        0.00000
C          3.71250        0.71450        0.00000
C          2.47500        1.42890        0.00000
C          2.06250        0.71450        0.00000
C          1.23750        0.71450        0.00000
C          0.82500        0.00000        0.00000
C          1.23750       -0.71450        0.00000
C          0.00000        0.00000        0.00000
C         -0.41250       -0.71450        0.00000
O         -1.23750       -0.71450        0.00000
O          0.00000       -1.42890        0.00000
C         -0.41250       -2.14340        0.00000
C          0.00000       -2.85790        0.00000
C         -1.23750       -2.14340        0.00000
