7
Methamidophos
C          2.47500       -1.42890        0.00000
O          1.65000       -1.42890        0.00000
P          1.23750       -0.71450        0.00000
N          1.95200       -0.30200        0.00000
O          0.52300       -1.12700        0.00000
S          0.82500        0.00000        0.00000
C          0.00000        0.00000        0.00000
