33
methotrexate
C          2.14340       -4.53750        0.00000
N          2.85790       -4.95000        0.00000
C          2.85790       -5.77500        0.00000
C          2.14340       -6.18750        0.00000
C          2.14340       -7.01250        0.00000
N          1.42890       -7.42500        0.00000
C          0.71450       -7.01250        0.00000
N          0.00000       -7.42500        0.00000
C         -0.71450       -7.01250        0.00000
N         -1.42890       -7.42500        0.00000
N         -0.71450       -6.18750        0.00000
C          0.00000       -5.77500        0.00000
N          0.00000       -4.95000        0.00000
C          0.71450       -6.18750        0.00000
N          1.42890       -5.77500        0.00000
C          3.57240       -4.53750        0.00000
C          3.57240       -3.71250        0.00000
C          4.28680       -3.30000        0.00000
C          5.00130       -3.71250        0.00000
C          5.00130       -4.53750        0.00000
C          4.28680       -4.95000        0.00000
C          5.71580       -3.30000        0.00000
O          5.71580       -2.47500        0.00000
N          6.43020       -3.71250        0.00000
C          7.14470       -3.30000        0.00000
C          7.85920       -3.71250        0.00000
C          8.57370       -3.30000        0.00000
C          9.28810       -3.71250        0.00000
O         10.00260       -3.30000        0.00000
O          9.28810       -4.53750        0.00000
C          7.14470       -2.47500        0.00000
O          7.85920       -2.06250        0.00000
O          6.43020       -2.06250        0.00000
