24
methyl DL-N-(2,6-dimethylphenyl)-N-(phenylacetyl)-alanine
N          4.97740       -5.95370        0.00000
C          3.43740       -5.95370        0.00000
C          2.66740       -7.28740        0.00000
C          2.66740       -4.62000        0.00000
O          1.12740       -4.62000        0.00000
O          3.43740       -3.28630        0.00000
C          5.74740       -4.62000        0.00000
C          7.28740       -4.62000        0.00000
O          4.97740       -3.28630        0.00000
C          8.05740       -3.28630        0.00000
C          7.28740       -1.95260        0.00000
C          8.05740       -0.61900        0.00000
C          9.59740       -0.61900        0.00000
C         10.36740       -1.95260        0.00000
C          9.59740       -3.28630        0.00000
C          5.74740       -7.28740        0.00000
C          7.28740       -7.28740        0.00000
C          8.05740       -8.62100        0.00000
C          7.28740       -9.95470        0.00000
C          5.74740       -9.95470        0.00000
C          4.97740       -8.62100        0.00000
C          8.05740       -5.95370        0.00000
C          3.43740       -8.62100        0.00000
C          0.35740       -3.28630        0.00000
