26
methyl 2-difluoromethyl-5-(4,5-dihydro-thiazol-2-yl)-4-(2-methyl-propyl)-6-trifluoromethyl-pyridine-3-carboxylate
C          0.82120        6.00270        0.00000
O          0.10670        5.59020        0.00000
C          0.10670        4.76520        0.00000
O          0.82120        4.35270        0.00000
C         -0.60780        4.35270        0.00000
C         -0.60780        3.52770        0.00000
C          0.10670        3.11520        0.00000
C          0.82120        3.52770        0.00000
C          1.30610        4.19510        0.00000
C          1.53560        3.11520        0.00000
C         -1.32220        3.11520        0.00000
C         -1.32220        2.29020        0.00000
N         -0.65480        1.80530        0.00000
C         -0.90970        1.02060        0.00000
C         -1.73470        1.02060        0.00000
S         -1.98970        1.80530        0.00000
C         -2.03670        3.52770        0.00000
N         -2.03670        4.35270        0.00000
C         -1.32220        4.76520        0.00000
C         -1.32220        5.59020        0.00000
F         -0.60780        6.00270        0.00000
F         -2.03670        6.00270        0.00000
C         -2.75120        3.11520        0.00000
F         -3.46560        2.70270        0.00000
F         -3.16370        3.82970        0.00000
F         -2.33870        2.40070        0.00000
