29
metobenzuron
C         -2.14340       -6.18750        0.00000
O         -1.42890       -6.60000        0.00000
N         -0.71450       -6.18750        0.00000
C         -0.71450       -5.36250        0.00000
C          0.00000       -6.60000        0.00000
O          0.00000       -7.42500        0.00000
N          0.71450       -6.18750        0.00000
C          1.42890       -6.60000        0.00000
C          2.14340       -6.18750        0.00000
C          2.85790       -6.60000        0.00000
C          2.85790       -7.42500        0.00000
O          3.57240       -7.83750        0.00000
C          3.57240       -8.66250        0.00000
C          2.85790       -9.07500        0.00000
C          2.85790       -9.90000        0.00000
C          3.57240      -10.31250        0.00000
C          4.28680       -9.90000        0.00000
O          5.00130      -10.31250        0.00000
C          5.00130      -11.13750        0.00000
C          5.81380      -10.99420        0.00000
C          4.28680      -11.55000        0.00000
C          3.57240      -11.13750        0.00000
C          3.13520      -11.83710        0.00000
C          2.74790      -11.16630        0.00000
O          5.28350      -11.91270        0.00000
C          6.09590      -12.05600        0.00000
C          4.28680       -9.07500        0.00000
C          2.14340       -7.83750        0.00000
C          1.42890       -7.42500        0.00000
