38
Milbemectin A3
C         11.65300       -0.84050        0.00000
C         10.87940       -1.12730        0.00000
C         10.74100       -1.94060        0.00000
C          9.96740       -2.22730        0.00000
C          9.33230       -1.70080        0.00000
C          8.69720       -1.17430        0.00000
C          7.92360       -1.46100        0.00000
C          7.78520       -2.27430        0.00000
C          8.42030       -2.80090        0.00000
C          8.29480       -3.78090        0.00000
C          7.81100       -4.44910        0.00000
C          7.10820       -4.88130        0.00000
C          7.39500       -5.65490        0.00000
C          6.29360       -5.01170        0.00000
C          5.49110       -4.82030        0.00000
C          5.14690       -5.57010        0.00000
C          4.82290       -4.33650        0.00000
C          4.39070       -3.63370        0.00000
C          4.26030       -2.81910        0.00000
C          4.45170       -2.01660        0.00000
C          3.63000       -1.94240        0.00000
O          3.44670       -1.13800        0.00000
C          4.15500       -0.71510        0.00000
C          4.31470        0.09430        0.00000
O          3.69350        0.63730        0.00000
C          5.09550        0.36070        0.00000
C          5.25510        1.17010        0.00000
C          5.71660       -0.18220        0.00000
C          5.55690       -0.99160        0.00000
C          6.45290       -0.78580        0.00000
O          6.45630        0.03910        0.00000
O          7.25540       -0.97720        0.00000
C          4.77610       -1.25810        0.00000
O          5.33710       -1.86300        0.00000
O          9.19390       -2.51410        0.00000
O          9.47070       -0.88750        0.00000
C         10.24430       -0.60070        0.00000
C         10.38270        0.21260        0.00000
