12
molinate
C         -0.57240        3.83820        0.00000
C          0.14210        3.42570        0.00000
S          0.14210        2.60070        0.00000
C          0.85660        2.18820        0.00000
O          1.57100        2.60070        0.00000
N          0.85660        1.36320        0.00000
C          1.59990        1.00530        0.00000
C          1.78340        0.20090        0.00000
C          1.26910       -0.44410        0.00000
C          0.44410       -0.44410        0.00000
C         -0.07030        0.20090        0.00000
C          0.11330        1.00530        0.00000
