17
N-(1-ethyl-1H-pyrazol-5-yl)-N'-phenylurea
N         -2.77430       -2.76660        0.00000
C         -3.38740       -3.31860        0.00000
O         -3.21590       -4.12560        0.00000
N         -4.17200       -3.06370        0.00000
C         -4.78510       -3.61570        0.00000
C         -4.61360       -4.42270        0.00000
C         -5.22670       -4.97470        0.00000
C         -6.01130       -4.71980        0.00000
C         -6.18280       -3.91280        0.00000
C         -5.56970       -3.36080        0.00000
N         -1.32220       -2.53660        0.00000
N         -0.65480       -3.02150        0.00000
C         -0.90970       -3.80620        0.00000
C         -1.73470       -3.80620        0.00000
C         -1.98970       -3.02150        0.00000
C         -1.32220       -1.71160        0.00000
C         -2.03670       -1.29910        0.00000
