21
N-(3,5-dichlorophenyl)-3-(1-methylethyl)-2,4- dioxo-1-imidazolidinecarboxamide
N          1.42890       -2.47500        0.00000
C          2.09640       -2.95990        0.00000
N          1.84140       -3.74450        0.00000
C          1.01640       -3.74450        0.00000
C          0.76150       -2.95990        0.00000
C          1.42890       -1.65000        0.00000
O          2.14340       -1.23750        0.00000
N          0.71450       -1.23750        0.00000
O          2.88100       -2.70500        0.00000
O          0.53150       -4.41200        0.00000
C          2.32640       -4.41200        0.00000
C          1.99080       -5.16570        0.00000
C          3.14680       -4.32570        0.00000
C          0.71450       -0.41250        0.00000
C          0.00000        0.00000        0.00000
C          0.00000        0.82500        0.00000
C          0.71450        1.23750        0.00000
C          1.42890        0.82500        0.00000
C          1.42890        0.00000        0.00000
Cl        -0.71450        1.23750        0.00000
Cl         2.14340        1.23750        0.00000
