28
N-(4-methoxy-6-methyl-1,3,5-triazin-2-yl)-N?-(5-iodo-2-methoxycarbonyl-phenylsulphonyl)-urea sodium salt
Na         0.00000        0.00000        0.00000
C          2.23930        0.73330        0.00000
O          2.23930       -0.09170        0.00000
C          2.95380       -0.50420        0.00000
O          3.66820       -0.09170        0.00000
C          2.95380       -1.32920        0.00000
C          3.66820       -1.74170        0.00000
C          3.66820       -2.56670        0.00000
C          2.95380       -2.97920        0.00000
I          2.95380       -3.80420        0.00000
C          2.23930       -2.56670        0.00000
C          2.23930       -1.74170        0.00000
S          4.38270       -1.32920        0.00000
O          4.79520       -2.04360        0.00000
O          3.97020       -0.61470        0.00000
N          5.09720       -0.91670        0.00000
C          5.09720       -0.09170        0.00000
O          4.38270        0.32080        0.00000
N          5.81160        0.32080        0.00000
C          5.81160        1.14580        0.00000
N          5.09720        1.55830        0.00000
C          5.09720        2.38330        0.00000
C          4.38270        2.79580        0.00000
N          5.81160        2.79580        0.00000
C          6.52610        2.38330        0.00000
O          7.24060        2.79580        0.00000
C          7.24060        3.62080        0.00000
N          6.52610        1.55830        0.00000
