27
N-(4,6-dimethoxypyrimidin-2-yl)-N?-(2-chloroimidazo[1,2-a]-pyridin-3-ylsulphonyl)urea
C         -3.36390       -5.97460        0.00000
O         -2.55690       -5.80310        0.00000
C         -2.30200       -5.01840        0.00000
C         -2.85400       -4.40540        0.00000
C         -2.59900       -3.62070        0.00000
O         -3.15110       -3.00760        0.00000
C         -2.89610       -2.22300        0.00000
N         -1.79210       -3.44920        0.00000
C         -1.24000       -4.06230        0.00000
N         -0.43310       -3.89080        0.00000
C         -0.17810       -3.10620        0.00000
O         -0.73020       -2.49310        0.00000
N          0.62880       -2.93460        0.00000
S          0.88380       -2.15000        0.00000
O          1.66840       -2.40490        0.00000
O          0.09920       -1.89510        0.00000
C          1.13870       -1.36540        0.00000
C          0.65380       -0.69790        0.00000
Cl        -0.17120       -0.69790        0.00000
N          1.13870       -0.03050        0.00000
C          1.92330       -0.28540        0.00000
C          2.63780        0.12710        0.00000
C          3.35230       -0.28540        0.00000
C          3.35230       -1.11040        0.00000
C          2.63780       -1.52290        0.00000
N          1.92330       -1.11040        0.00000
N         -1.49500       -4.84690        0.00000
