8
N- isopropylphosphoramidothioate
P          0.82500        1.42890        0.00000
S          0.41250        2.14340        0.00000
O          0.11050        1.01640        0.00000
O          1.53950        1.84140        0.00000
N          1.23750        0.71450        0.00000
C          1.23750       -0.71450        0.00000
C          0.82500        0.00000        0.00000
C          0.00000        0.00000        0.00000
