23
N-butyl-N-ethyl-2,6-dinitro-4-trifluoromethylaniline
C          1.73090       -2.17300        0.00000
C          2.14340       -2.88750        0.00000
C          2.96840       -2.88750        0.00000
C          3.38090       -3.60200        0.00000
N          4.20590       -3.60200        0.00000
C          4.61840       -2.88750        0.00000
C          4.20590       -2.17300        0.00000
C          4.61840       -4.31640        0.00000
C          5.44340       -4.31640        0.00000
C          5.85590       -5.03090        0.00000
C          5.44340       -5.74540        0.00000
C          4.61840       -5.74540        0.00000
C          4.20590       -5.03090        0.00000
N          3.38090       -5.03090        0.00000
O          2.96840       -4.31640        0.00000
O          2.96840       -5.74540        0.00000
C          5.85590       -6.45990        0.00000
F          6.26840       -7.17430        0.00000
F          5.14140       -6.87240        0.00000
F          6.57040       -6.04740        0.00000
N          5.85590       -3.60200        0.00000
O          6.68090       -3.60200        0.00000
O          5.44340       -2.88750        0.00000
