11
N-dimethylaminosuccinamic acid
C          2.06250        0.71450        0.00000
N          1.23750        0.71450        0.00000
C          0.82500        1.42890        0.00000
N          0.82500        0.00000        0.00000
C          0.00000        0.00000        0.00000
O         -0.41250        0.71450        0.00000
C         -0.41250       -0.71450        0.00000
C          0.00000       -1.42890        0.00000
C         -0.41250       -2.14340        0.00000
O          0.00000       -2.85790        0.00000
O         -1.23750       -2.14340        0.00000
