26
N-tert-butyl-N'-(4-ethylbenzoyl)-3,5-dimethylbenzohydrazide
C          1.42890       -2.47500        0.00000
C          2.14340       -2.88750        0.00000
C          2.14340       -3.71250        0.00000
C          2.85790       -4.12500        0.00000
C          2.85790       -4.95000        0.00000
C          2.14340       -5.36250        0.00000
C          1.42890       -4.95000        0.00000
C          1.42890       -4.12500        0.00000
C          2.14340       -6.18750        0.00000
O          1.42890       -6.60000        0.00000
N          2.85790       -6.60000        0.00000
N          2.85790       -7.42500        0.00000
C          3.57240       -7.83750        0.00000
O          4.28680       -7.42500        0.00000
C          3.57240       -8.66250        0.00000
C          4.28680       -9.07500        0.00000
C          4.28680       -9.90000        0.00000
C          5.00130      -10.31250        0.00000
C          3.57240      -10.31250        0.00000
C          2.85790       -9.90000        0.00000
C          2.14340      -10.31250        0.00000
C          2.85790       -9.07500        0.00000
C          3.57240       -6.18750        0.00000
C          4.28680       -5.77500        0.00000
C          3.98490       -6.90200        0.00000
C          3.15990       -5.47300        0.00000
