29
nicotine nicotine sulfate
S          0.00000        0.00000        0.00000
O          0.00000       -0.82500        0.00000
O          0.00000        0.82500        0.00000
O          0.82500        0.00000        0.00000
O         -0.82500        0.00000        0.00000
C          5.96770        1.03620        0.00000
N          5.96770        0.21120        0.00000
C          6.63520       -0.27370        0.00000
C          6.38020       -1.05840        0.00000
C          5.55520       -1.05840        0.00000
C          5.30030       -0.27370        0.00000
C          4.51570       -0.01880        0.00000
C          3.90260       -0.57080        0.00000
C          3.11800       -0.31590        0.00000
C          2.94640        0.49110        0.00000
N          3.55950        1.04310        0.00000
C          4.34410        0.78820        0.00000
C          1.11830       -2.71530        0.00000
N          1.11830       -3.54030        0.00000
C          1.78580       -4.02520        0.00000
C          1.53080       -4.80980        0.00000
C          0.70580       -4.80980        0.00000
C          0.45090       -4.02520        0.00000
C         -0.33370       -3.77030        0.00000
C         -0.94680       -4.32230        0.00000
C         -1.73140       -4.06740        0.00000
C         -1.90300       -3.26040        0.00000
N         -1.28990       -2.70840        0.00000
C         -0.50520       -2.96330        0.00000
