17
Nicotine sulfate
S          0.00000        0.00000        0.00000
O          0.00000       -0.82500        0.00000
O          0.00000        0.82500        0.00000
O          0.82500        0.00000        0.00000
O         -0.82500        0.00000        0.00000
C          5.96770        1.03620        0.00000
N          5.96770        0.21120        0.00000
C          6.63520       -0.27370        0.00000
C          6.38020       -1.05840        0.00000
C          5.55520       -1.05840        0.00000
C          5.30030       -0.27370        0.00000
C          4.51570       -0.01880        0.00000
C          3.90260       -0.57080        0.00000
C          3.11800       -0.31590        0.00000
C          2.94640        0.49110        0.00000
N          3.55950        1.04310        0.00000
C          4.34410        0.78820        0.00000
