34
nicotine sulfate 3-(1-methyl-2-pyrrolidinyl)pyridine sulfate, (S)-
S          0.00000        0.00000        0.00000
O          0.00000       -0.82500        0.00000
O          0.00000        0.82500        0.00000
O          0.82500        0.00000        0.00000
O         -0.82500        0.00000        0.00000
S          3.65360        0.00000        0.00000
O          3.65360       -0.82500        0.00000
O          3.65360        0.82500        0.00000
O          4.47860        0.00000        0.00000
O          2.82860        0.00000        0.00000
C          1.11830       -2.48190        0.00000
N          1.11830       -3.30690        0.00000
C          1.78580       -3.79180        0.00000
C          1.53080       -4.57650        0.00000
C          0.70580       -4.57650        0.00000
C          0.45090       -3.79180        0.00000
C         -0.33370       -3.53690        0.00000
C         -0.94680       -4.08890        0.00000
C         -1.73140       -3.83400        0.00000
C         -1.90300       -3.02700        0.00000
N         -1.28990       -2.47500        0.00000
C         -0.50520       -2.72990        0.00000
N          7.54230       -3.83400        0.00000
C          6.75770       -4.08890        0.00000
C          6.14460       -3.53690        0.00000
C          6.31610       -2.72990        0.00000
C          7.10070       -2.47500        0.00000
C          7.71380       -3.02700        0.00000
N          4.69250       -3.30690        0.00000
C          5.35990       -3.79180        0.00000
C          5.10500       -4.57650        0.00000
C          4.28000       -4.57650        0.00000
C          4.02510       -3.79180        0.00000
C          4.69250       -2.48190        0.00000
