7
Nitroguanidin
N          1.23750        0.71450        0.00000
C          0.82500        0.00000        0.00000
N          1.23750       -0.71450        0.00000
N          0.00000        0.00000        0.00000
N         -0.41250       -0.71450        0.00000
O          0.00000       -1.42890        0.00000
O         -1.23750       -0.71450        0.00000
