9
nitropyrazol-5-ylamine
N          0.56780        1.93930        0.00000
N          1.23520        0.62940        0.00000
N          0.98030       -0.15530        0.00000
C          0.15530       -0.15530        0.00000
C         -0.09970        0.62940        0.00000
C          0.56780        1.11430        0.00000
N          1.28220        2.35180        0.00000
O          1.28220        3.17680        0.00000
O          1.99670        1.93930        0.00000
