14
O-2-methoxycarbonylprop-1-enyl O,O- dimethyl phosphorothioate, (E)-
P          2.06250       -0.71450        0.00000
S          2.06250       -1.53950        0.00000
O          2.88750       -0.71450        0.00000
O          2.06250        0.11050        0.00000
O          1.23750       -0.71450        0.00000
C          3.30000       -1.42890        0.00000
C          2.77700        0.52300        0.00000
C          0.82500        0.00000        0.00000
C          0.00000        0.00000        0.00000
C         -0.41250        0.71450        0.00000
C         -0.41250       -0.71450        0.00000
O          0.00000       -1.42890        0.00000
O         -1.23750       -0.71450        0.00000
C         -1.65000       -1.42890        0.00000
