12
O-ethyl phenylphosphonothioate
P          0.71450        2.06250        0.00000
S          1.53950        2.06250        0.00000
O          0.71450        2.88750        0.00000
O         -0.11050        2.06250        0.00000
C          0.71450        1.23750        0.00000
C          1.42890        0.82500        0.00000
C          1.42890        0.00000        0.00000
C          0.71450       -0.41250        0.00000
C          0.00000        0.00000        0.00000
C          0.00000        0.82500        0.00000
C          1.42890        3.30000        0.00000
C          1.42890        4.12500        0.00000
