22
oxadiazon
C          0.82120        6.00270        0.00000
C          0.10670        5.59020        0.00000
C         -0.60780        6.00270        0.00000
O          0.10670        4.76520        0.00000
C         -0.60780        4.35270        0.00000
C         -0.60780        3.52770        0.00000
C         -1.32220        3.11520        0.00000
N         -1.32220        2.29020        0.00000
N         -0.65480        1.80530        0.00000
C         -0.90970        1.02060        0.00000
O         -1.73470        1.02060        0.00000
C         -1.98970        1.80530        0.00000
O         -2.77430        2.06020        0.00000
C         -0.42480        0.35320        0.00000
C          0.06010       -0.31420        0.00000
C         -1.09230       -0.13170        0.00000
C          0.24260        0.83810        0.00000
C         -2.03670        3.52770        0.00000
Cl        -2.75120        3.11520        0.00000
C         -2.03670        4.35270        0.00000
C         -1.32220        4.76520        0.00000
Cl        -1.32220        5.59020        0.00000
