15
oxolinic acid dioxamyl
O         -1.46810        0.74810        0.00000
C         -1.38190       -0.07240        0.00000
C         -2.13560       -0.40800        0.00000
C         -2.68760        0.20510        0.00000
C         -2.27510        0.91960        0.00000
C         -0.66740       -0.48490        0.00000
O          0.04700       -0.07240        0.00000
O         -0.66740       -1.30990        0.00000
C          0.76150       -0.48490        0.00000
C          1.47600       -0.07240        0.00000
C          2.19040       -0.48490        0.00000
C          2.90490       -0.07240        0.00000
C          3.61940       -0.48490        0.00000
O          0.76150       -1.30990        0.00000
O          4.33390       -0.07240        0.00000
