25
phenisopham
C         -2.14340       -7.01250        0.00000
C         -1.42890       -6.60000        0.00000
N         -1.42890       -5.77500        0.00000
C         -0.71450       -5.36250        0.00000
O         -0.71450       -4.53750        0.00000
O          0.00000       -5.77500        0.00000
C          0.71450       -5.36250        0.00000
C          0.71450       -4.53750        0.00000
C          1.42890       -4.12500        0.00000
C          2.14340       -4.53750        0.00000
C          2.14340       -5.36250        0.00000
N          2.85790       -5.77500        0.00000
C          3.57240       -5.36250        0.00000
O          3.57240       -4.53750        0.00000
O          4.28680       -5.77500        0.00000
C          5.00130       -5.36250        0.00000
C          5.71580       -5.77500        0.00000
C          5.00130       -4.53750        0.00000
C          1.42890       -5.77500        0.00000
C         -2.14340       -5.36250        0.00000
C         -2.85790       -5.77500        0.00000
C         -3.57240       -5.36250        0.00000
C         -3.57240       -4.53750        0.00000
C         -2.85790       -4.12500        0.00000
C         -2.14340       -4.53750        0.00000
