19
phenthoate
C         -2.14340        2.06250        0.00000
C         -1.42890        2.47500        0.00000
O         -0.71450        2.06250        0.00000
C          0.00000        2.47500        0.00000
O          0.00000        3.30000        0.00000
C          0.71450        2.06250        0.00000
S          1.42890        2.47500        0.00000
P          2.14340        2.06250        0.00000
S          1.73090        1.34800        0.00000
O          2.85790        1.65000        0.00000
C          3.57240        2.06250        0.00000
O          2.55590        2.77700        0.00000
C          3.38090        2.77700        0.00000
C          0.71450        1.23750        0.00000
C          1.42890        0.82500        0.00000
C          1.42890        0.00000        0.00000
C          0.71450       -0.41250        0.00000
C          0.00000        0.00000        0.00000
C          0.00000        0.82500        0.00000
