26
Phenothrin
C          6.54080       -6.25130        0.00000
C          5.82630       -5.83880        0.00000
C          5.82630       -5.01380        0.00000
C          5.11180       -6.25130        0.00000
C          4.39740       -5.83880        0.00000
C          3.57240       -5.83880        0.00000
C          2.85790       -6.25130        0.00000
O          2.85790       -7.07630        0.00000
O          2.14340       -5.83880        0.00000
C          1.42890       -6.25130        0.00000
C          0.71450       -5.83880        0.00000
C          0.00000       -6.25130        0.00000
C         -0.71450       -5.83880        0.00000
O         -1.42890       -6.25130        0.00000
C         -2.14340       -5.83880        0.00000
C         -2.85790       -6.25130        0.00000
C         -3.57240       -5.83880        0.00000
C         -3.57240       -5.01380        0.00000
C         -2.85790       -4.60130        0.00000
C         -2.14340       -5.01380        0.00000
C         -0.71450       -5.01380        0.00000
C          0.00000       -4.60130        0.00000
C          0.71450       -5.01380        0.00000
C          3.98490       -5.12430        0.00000
C          3.51170       -4.44850        0.00000
C          4.45810       -4.44850        0.00000
