24
PHENYLENEDIAMINE
N          0.00000        1.65000        0.00000
C          0.00000        0.82500        0.00000
C          0.71450        0.41250        0.00000
C          0.71450       -0.41250        0.00000
C          0.00000       -0.82500        0.00000
N          0.00000       -1.65000        0.00000
C         -0.71450       -0.41250        0.00000
C         -0.71450        0.41250        0.00000
N          3.55040        1.54690        0.00000
C          3.55040        0.72190        0.00000
C          4.26480        0.30940        0.00000
C          4.26480       -0.51560        0.00000
N          4.97930       -0.92810        0.00000
C          3.55040       -0.92810        0.00000
C          2.83590       -0.51560        0.00000
C          2.83590        0.30940        0.00000
N          0.17860       -3.30000        0.00000
C          0.17860       -4.12500        0.00000
C          0.89310       -4.53750        0.00000
C          0.89310       -5.36250        0.00000
C          0.17860       -5.77500        0.00000
C         -0.53590       -5.36250        0.00000
C         -0.53590       -4.53750        0.00000
N         -1.25030       -4.12500        0.00000
