13
phosphonic acid N-phosphomethylglycine
N         -0.60390        0.00000        0.00000
C          0.11050        0.41250        0.00000
C          0.82500        0.00000        0.00000
O          0.82500       -0.82500        0.00000
C         -1.31840        0.41250        0.00000
P         -2.03290        0.00000        0.00000
O         -2.74740       -0.41250        0.00000
O         -1.62040       -0.71450        0.00000
O         -2.44540        0.71450        0.00000
P          2.25390        0.00000        0.00000
O          1.53950        0.41250        0.00000
O          2.96840        0.41250        0.00000
O          2.25390       -0.82500        0.00000
