19
Phoxim
C          5.00130        2.88750        0.00000
C          4.28680        2.47500        0.00000
O          3.57240        2.88750        0.00000
P          2.85790        2.47500        0.00000
S          2.44540        3.18950        0.00000
O          3.27040        1.76050        0.00000
C          2.85790        1.04610        0.00000
C          2.03290        1.04610        0.00000
O          2.14340        2.06250        0.00000
N          1.42890        2.47500        0.00000
C          0.71450        2.06250        0.00000
C          0.00000        2.47500        0.00000
N         -0.71450        2.88750        0.00000
C          0.71450        1.23750        0.00000
C          1.42890        0.82500        0.00000
C          1.42890        0.00000        0.00000
C          0.71450       -0.41250        0.00000
C          0.00000        0.00000        0.00000
C          0.00000        0.82500        0.00000
