36
polyoxin D
N          2.28060       -9.67880        0.00000
C          2.47870       -8.87790        0.00000
C          1.88430       -8.30590        0.00000
O          2.08240       -7.50510        0.00000
C          1.09160       -8.53470        0.00000
O          0.89350       -9.33560        0.00000
C          0.49710       -7.96270        0.00000
O         -0.29550       -8.19150        0.00000
C         -0.89000       -7.61950        0.00000
N         -1.68260       -7.84830        0.00000
O         -0.69180       -6.81860        0.00000
C          3.27140       -8.64910        0.00000
O          3.46950       -7.84830        0.00000
N          3.86580       -9.22120        0.00000
C          4.65850       -8.99230        0.00000
C          5.25300       -9.56440        0.00000
O          6.06520       -9.41970        0.00000
C          6.45380      -10.14740        0.00000
C          5.88170      -10.74190        0.00000
O          6.02640      -11.55410        0.00000
C          5.13960      -10.38160        0.00000
O          4.41180      -10.77020        0.00000
N          7.27090      -10.26080        0.00000
C          7.77770       -9.60980        0.00000
C          8.59490       -9.72310        0.00000
C          9.10160       -9.07210        0.00000
O          8.79120       -8.30770        0.00000
O          9.91880       -9.18550        0.00000
C          8.90530      -10.48750        0.00000
O          9.72250      -10.60090        0.00000
N          8.39850      -11.13850        0.00000
C          7.58140      -11.02520        0.00000
O          7.07460      -11.67620        0.00000
C          4.85660       -8.19150        0.00000
O          4.26220       -7.61950        0.00000
O          5.64930       -7.96270        0.00000
