6
Polyoxymethylene
C          0.71450        1.23750        0.00000
O          1.42890        0.82500        0.00000
C          1.42890        0.00000        0.00000
O          0.71450       -0.41250        0.00000
C          0.00000        0.00000        0.00000
O          0.00000        0.82500        0.00000
