19
potassium (1-(4-chlorophenyl)-1,4- dihydro-6-methyl-4-oxo-3- pyridazinecarboxylate)
N         -0.19850       -0.02290        0.00000
N          0.51600       -0.43540        0.00000
C          0.51600       -1.26040        0.00000
C         -0.19850       -1.67290        0.00000
C         -0.91290       -1.26040        0.00000
C         -0.91290       -0.43540        0.00000
C          1.23050       -1.67290        0.00000
O          1.23050       -2.49790        0.00000
O          1.94490       -1.26040        0.00000
O         -0.19850       -2.49790        0.00000
C         -1.62740       -0.02290        0.00000
C         -0.19850        0.80210        0.00000
C         -0.91290        1.21460        0.00000
C         -0.91290        2.03960        0.00000
C         -0.19850        2.45210        0.00000
C          0.51600        2.03960        0.00000
C          0.51600        1.21460        0.00000
Cl        -0.19850        3.27710        0.00000
K          4.06640        0.00000        0.00000
