14
potassium 4-amino-3,5,6-trichloropicolinate
O         -0.82440        1.80870        0.00000
C         -0.10990        1.39620        0.00000
O          0.60460        1.80870        0.00000
C         -0.10990        0.57120        0.00000
C          0.60460        0.15870        0.00000
C          0.60460       -0.66630        0.00000
C         -0.10990       -1.07880        0.00000
C         -0.82440       -0.66630        0.00000
N         -0.82440        0.15870        0.00000
Cl         1.31900        0.57120        0.00000
Cl        -0.10990       -1.90380        0.00000
Cl        -1.53890       -1.07880        0.00000
N          1.31900       -1.07880        0.00000
K          3.44050        0.00000        0.00000
