18
Procymidone
C          0.61710       -3.91140        0.00000
C          0.95260       -3.15770        0.00000
C          0.23820       -2.74520        0.00000
C          0.95260       -2.33270        0.00000
C          0.61710       -1.57900        0.00000
C          1.73720       -2.07780        0.00000
O          1.99220       -1.29310        0.00000
N          2.22220       -2.74520        0.00000
C          1.73720       -3.41260        0.00000
O          1.99220       -4.19730        0.00000
C          3.04720       -2.74520        0.00000
C          3.45970       -2.03070        0.00000
C          4.28470       -2.03070        0.00000
Cl         4.69720       -1.31630        0.00000
C          4.69720       -2.74520        0.00000
C          4.28470       -3.45970        0.00000
Cl         4.69720       -4.17410        0.00000
C          3.45970       -3.45970        0.00000
