24
Propargite
C         -2.85790        2.47500        0.00000
C         -2.14340        2.06250        0.00000
C         -2.55590        1.34800        0.00000
C         -1.73090        2.77700        0.00000
C         -1.42890        1.65000        0.00000
C         -0.71450        2.06250        0.00000
C          0.00000        1.65000        0.00000
C          0.00000        0.82500        0.00000
O          0.71450        0.41250        0.00000
C          1.42890        0.82500        0.00000
C          1.42890        1.65000        0.00000
C          2.14340        2.06250        0.00000
C          2.85790        1.65000        0.00000
C          2.85790        0.82500        0.00000
C          2.14340        0.41250        0.00000
O          2.14340       -0.41250        0.00000
S          2.85790       -0.82500        0.00000
O          2.85790       -1.65000        0.00000
O          3.57240       -0.41250        0.00000
C          4.28680       -0.82500        0.00000
C          5.00130       -0.41250        0.00000
C          5.71580        0.00000        0.00000
C         -0.71450        0.41250        0.00000
C         -1.42890        0.82500        0.00000
