31
propaquizafop
C          6.43020        1.23750        0.00000
C          6.43020        0.41250        0.00000
O          5.71580        0.00000        0.00000
C          5.00130        0.41250        0.00000
C          4.28680        0.00000        0.00000
C          3.57240        0.41250        0.00000
C          3.57240        1.23750        0.00000
O          2.85790        1.65000        0.00000
C          2.85790        2.47500        0.00000
C          2.14340        2.88750        0.00000
N          2.14340        3.71250        0.00000
C          2.85790        4.12500        0.00000
C          2.85790        4.95000        0.00000
C          3.57240        5.36250        0.00000
Cl         3.57240        6.18750        0.00000
C          4.28680        4.95000        0.00000
C          4.28680        4.12500        0.00000
C          3.57240        3.71250        0.00000
N          3.57240        2.88750        0.00000
C          4.28680        1.65000        0.00000
C          5.00130        1.23750        0.00000
C          7.14470        0.00000        0.00000
O          7.14470       -0.82500        0.00000
O          7.85920        0.41250        0.00000
C          8.57370        0.00000        0.00000
C          9.28810        0.41250        0.00000
O         10.00260        0.00000        0.00000
N         10.71710        0.41250        0.00000
C         11.43150        0.00000        0.00000
C         12.14600        0.41250        0.00000
C         11.43150       -0.82500        0.00000
