20
Propanamide, N,N-diethyl-2-(1-naphthalenyloxy)-
C         -4.39740        0.19140        0.00000
C         -3.57240        0.19140        0.00000
N         -3.15990       -0.52300        0.00000
C         -3.57240       -1.23750        0.00000
C         -4.39740       -1.23750        0.00000
C         -2.33490       -0.52300        0.00000
O         -1.92240        0.19140        0.00000
C         -1.92240       -1.23750        0.00000
C         -2.33490       -1.95200        0.00000
O         -1.09740       -1.23750        0.00000
C         -0.68490       -1.95200        0.00000
C         -1.09740       -2.66640        0.00000
C         -0.68490       -3.38090        0.00000
C          0.14010       -3.38090        0.00000
C          0.55260       -2.66640        0.00000
C          0.14010       -1.95200        0.00000
C          0.55260       -1.23750        0.00000
C          1.37760       -1.23750        0.00000
C          1.79010       -1.95200        0.00000
C          1.37760       -2.66640        0.00000
