14
propyl 3-(dimethylamino)propylcarbamate monohydrochloride
N         -0.16490        0.22210        0.00000
C         -0.87930       -0.19040        0.00000
O         -0.87930       -1.01540        0.00000
O         -1.59380        0.22210        0.00000
Cl         5.64680        0.00000        0.00000
C          0.54960       -0.19040        0.00000
C          1.26410        0.22210        0.00000
C          1.97850       -0.19040        0.00000
N          2.69300        0.22210        0.00000
C          3.40750       -0.19040        0.00000
C          2.69300        1.04710        0.00000
C         -2.30830       -0.19040        0.00000
C         -3.02280        0.22210        0.00000
C         -3.73720       -0.19040        0.00000
