17
propanecarboxylate 2,3,5,6-tetrafluorobenzyl
C          2.85790       -4.12500        0.00000
C          2.14340       -3.71250        0.00000
C          1.42890       -4.12500        0.00000
C          3.57240       -3.71250        0.00000
O          3.57240       -2.88750        0.00000
O          4.28680       -4.12500        0.00000
C          5.00130       -3.71250        0.00000
C          5.71580       -4.12500        0.00000
C          6.43020       -3.71250        0.00000
C          7.14470       -4.12500        0.00000
C          7.14470       -4.95000        0.00000
C          6.43020       -5.36250        0.00000
C          5.71580       -4.95000        0.00000
F          6.43020       -2.88750        0.00000
F          7.85920       -3.71250        0.00000
F          6.43020       -6.18750        0.00000
F          5.00130       -5.36250        0.00000
