16
Prothoate
C          1.65000        5.71580        0.00000
C          1.23750        5.00130        0.00000
O          1.65000        4.28680        0.00000
P          1.23750        3.57240        0.00000
S          0.52300        3.98490        0.00000
O          1.95200        3.15990        0.00000
C          1.95200        2.33490        0.00000
C          2.66640        1.92240        0.00000
S          0.82500        2.85790        0.00000
C          1.23750        2.14340        0.00000
C          0.82500        1.42890        0.00000
O          0.00000        1.42890        0.00000
N          1.23750        0.71450        0.00000
C          0.82500        0.00000        0.00000
C          1.23750       -0.71450        0.00000
C          0.00000        0.00000        0.00000
