22
pyraclofos
C         -1.42890        2.47500        0.00000
C         -1.42890        1.65000        0.00000
C         -0.71450        1.23750        0.00000
S         -0.71450        0.41250        0.00000
P          0.00000        0.00000        0.00000
O         -0.41250       -0.71450        0.00000
O          0.41250        0.71450        0.00000
C          1.23750        0.71450        0.00000
C          1.65000        0.00000        0.00000
O          0.71450       -0.41250        0.00000
C          0.71450       -1.23750        0.00000
C          1.38190       -1.72240        0.00000
N          1.12700       -2.50700        0.00000
N          0.30200       -2.50700        0.00000
C          0.04700       -1.72240        0.00000
C          1.61190       -3.17450        0.00000
C          2.43240       -3.08820        0.00000
C          2.91730       -3.75570        0.00000
C          2.58170       -4.50940        0.00000
Cl         3.06670       -5.17680        0.00000
C          1.76130       -4.59560        0.00000
C          1.27630       -3.92820        0.00000
