26
pyraflufen-ethyl
C         -1.42890       -3.30000        0.00000
C         -0.71450       -3.71250        0.00000
O          0.00000       -3.30000        0.00000
C          0.71450       -3.71250        0.00000
O          0.71450       -4.53750        0.00000
C          1.42890       -3.30000        0.00000
O          2.14340       -3.71250        0.00000
C          2.85790       -3.30000        0.00000
C          2.85790       -2.47500        0.00000
Cl         2.14340       -2.06250        0.00000
C          3.57240       -2.06250        0.00000
C          4.28680       -2.47500        0.00000
F          5.00130       -2.06250        0.00000
C          4.28680       -3.30000        0.00000
C          3.57240       -3.71250        0.00000
C          5.00130       -3.71250        0.00000
N          5.75500       -3.37690        0.00000
N          6.30700       -3.99000        0.00000
C          7.12750       -3.90380        0.00000
C          5.89450       -4.70450        0.00000
O          6.23010       -5.45820        0.00000
C          7.05050       -5.54440        0.00000
F          7.53550       -4.87700        0.00000
F          7.38610       -6.29810        0.00000
C          5.08750       -4.53300        0.00000
Cl         4.47440       -5.08500        0.00000
