24
Pyrazophos
C          4.92790        1.11040        0.00000
C          4.21350        0.69790        0.00000
O          3.49900        1.11040        0.00000
C          2.78450        0.69790        0.00000
O          2.78450       -0.12710        0.00000
C          2.07010        1.11040        0.00000
C          1.35560        0.69790        0.00000
N          0.64110        1.11040        0.00000
N         -0.14350        0.85550        0.00000
C         -0.62840        1.52290        0.00000
O         -1.45340        1.52290        0.00000
P         -1.86590        0.80850        0.00000
S         -2.58040        1.22100        0.00000
O         -2.27840        0.09400        0.00000
C         -3.10340        0.09400        0.00000
C         -3.51590       -0.62050        0.00000
O         -1.15150        0.39600        0.00000
C         -1.15150       -0.42900        0.00000
C         -1.86590       -0.84150        0.00000
C         -0.14350        2.19040        0.00000
C          0.64110        1.93540        0.00000
N          1.35560        2.34790        0.00000
C          2.07010        1.93540        0.00000
C          2.78450        2.34790        0.00000
