25
Pyridate
C          6.43020       -1.23750        0.00000
C          7.14470       -0.82500        0.00000
C          7.85920       -1.23750        0.00000
C          8.57370       -0.82500        0.00000
C          9.28810       -1.23750        0.00000
C         10.00260       -0.82500        0.00000
C         10.71710       -1.23750        0.00000
C         11.43150       -0.82500        0.00000
S         12.14600       -1.23750        0.00000
C         12.86050       -0.82500        0.00000
O         12.86050        0.00000        0.00000
O         13.57490       -1.23750        0.00000
C         14.28940       -0.82500        0.00000
C         14.28940        0.00000        0.00000
C         15.00390        0.41250        0.00000
Cl        15.00390        1.23750        0.00000
N         15.71840        0.00000        0.00000
N         15.71840       -0.82500        0.00000
C         15.00390       -1.23750        0.00000
C         15.00390       -2.06250        0.00000
C         15.71840       -2.47500        0.00000
C         15.71840       -3.30000        0.00000
C         15.00390       -3.71250        0.00000
C         14.28940       -3.30000        0.00000
C         14.28940       -2.47500        0.00000
