21
pyrithiobac
C          0.00000        0.00000        0.00000
O         -0.71450       -0.41250        0.00000
C         -0.71450       -1.23750        0.00000
C          0.00000       -1.65000        0.00000
C          0.00000       -2.47500        0.00000
O          0.71450       -2.88750        0.00000
C          0.71450       -3.71250        0.00000
N         -0.71450       -2.88750        0.00000
C         -1.42890       -2.47500        0.00000
S         -2.14340       -2.88750        0.00000
C         -2.14340       -3.71250        0.00000
C         -1.42890       -4.12500        0.00000
C         -1.42890       -4.95000        0.00000
C         -2.14340       -5.36250        0.00000
C         -2.85790       -4.95000        0.00000
Cl        -3.57240       -5.36250        0.00000
C         -2.85790       -4.12500        0.00000
C         -3.57240       -3.71250        0.00000
O         -3.57240       -2.88750        0.00000
O         -4.28680       -4.12500        0.00000
N         -1.42890       -1.65000        0.00000
