15
quinmerac
C          0.00000        0.00000        0.00000
C          0.71450       -0.41250        0.00000
C          1.42890        0.00000        0.00000
C          2.14340       -0.41250        0.00000
C          2.85790        0.00000        0.00000
C          3.57240       -0.41250        0.00000
C          3.57240       -1.23750        0.00000
Cl         4.28680       -1.65000        0.00000
C          2.85790       -1.65000        0.00000
C          2.85790       -2.47500        0.00000
O          2.14340       -2.88750        0.00000
O          3.57240       -2.88750        0.00000
C          2.14340       -1.23750        0.00000
N          1.42890       -1.65000        0.00000
C          0.71450       -1.23750        0.00000
