15
quinol sulfate
O          0.00000       -0.82500        0.00000
S          0.00000        0.00000        0.00000
O          0.00000        0.82500        0.00000
O          0.82500        0.00000        0.00000
O         -0.82500        0.00000        0.00000
C          2.94640        0.41250        0.00000
C          3.66090        0.82500        0.00000
C          4.37540        0.41250        0.00000
C          5.08980        0.82500        0.00000
C          5.80430        0.41250        0.00000
C          5.80430       -0.41250        0.00000
C          5.08980       -0.82500        0.00000
C          4.37540       -0.41250        0.00000
N          3.66090       -0.82500        0.00000
C          2.94640       -0.41250        0.00000
