19
quinalphos
C         -0.71450       -4.53750        0.00000
C         -0.71450       -3.71250        0.00000
O          0.00000       -3.30000        0.00000
P          0.00000       -2.47500        0.00000
S          0.82500       -2.47500        0.00000
O         -0.82500       -2.47500        0.00000
C         -1.23750       -1.76050        0.00000
C         -0.82500       -1.04610        0.00000
O          0.00000       -1.65000        0.00000
C          0.71450       -1.23750        0.00000
C          0.71450       -0.41250        0.00000
N          1.42890        0.00000        0.00000
C          2.14340       -0.41250        0.00000
C          2.85790        0.00000        0.00000
C          3.57240       -0.41250        0.00000
C          3.57240       -1.23750        0.00000
C          2.85790       -1.65000        0.00000
C          2.14340       -1.23750        0.00000
N          1.42890       -1.65000        0.00000
