12
S-(2-ethsulfonylethyl)thiophosphate
P          3.71250       -2.14340        0.00000
S          2.88750       -2.14340        0.00000
O          4.53750       -2.14340        0.00000
O          3.71250       -1.31840        0.00000
O          3.71250       -2.96840        0.00000
C          2.47500       -1.42890        0.00000
C          1.65000       -1.42890        0.00000
S          1.23750       -0.71450        0.00000
O          1.95200       -0.30200        0.00000
O          0.52300       -1.12700        0.00000
C          0.82500        0.00000        0.00000
C          0.00000        0.00000        0.00000
