15
S-2,3-Dichloroallyl diisopropylthiocarbamate
C          1.65000       -1.42890        0.00000
C          2.47500       -1.42890        0.00000
C          2.88750       -2.14340        0.00000
N          2.88750       -0.71450        0.00000
C          2.47500        0.00000        0.00000
C          1.65000        0.00000        0.00000
C          2.88750        0.71450        0.00000
C          3.71250       -0.71450        0.00000
O          4.12500       -1.42890        0.00000
S          4.12500        0.00000        0.00000
C          4.95000        0.00000        0.00000
C          5.36250        0.71450        0.00000
Cl         4.95000        1.42890        0.00000
C          6.18750        0.71450        0.00000
Cl         6.60000        1.42890        0.00000
