17
sec-butylamine 2-chloro-1-(2,4,5-trichlorophenyl) vinyl
C          0.71450        2.06250        0.00000
C          1.42890        2.47500        0.00000
C          0.71450        1.23750        0.00000
C          1.42890        0.82500        0.00000
C          1.42890        0.00000        0.00000
C          0.71450       -0.41250        0.00000
C          0.00000        0.00000        0.00000
C          0.00000        0.82500        0.00000
Cl         2.14340        1.23750        0.00000
Cl         0.71450       -1.23750        0.00000
Cl        -0.71450       -0.41250        0.00000
Cl         2.14340        2.06250        0.00000
C          1.42890        3.30000        0.00000
C          2.25390        3.30000        0.00000
C          1.42890        4.12500        0.00000
C          0.71450        4.53750        0.00000
N          0.60390        3.30000        0.00000
