17
siduron
C          2.85790       -1.65000        0.00000
C          2.85790       -2.47500        0.00000
C          3.57240       -2.88750        0.00000
C          3.57240       -3.71250        0.00000
C          2.85790       -4.12500        0.00000
C          2.14340       -3.71250        0.00000
C          2.14340       -2.88750        0.00000
N          1.42890       -2.47500        0.00000
C          1.42890       -1.65000        0.00000
O          2.14340       -1.23750        0.00000
N          0.71450       -1.23750        0.00000
C          0.71450       -0.41250        0.00000
C          0.00000        0.00000        0.00000
C          0.00000        0.82500        0.00000
C          0.71450        1.23750        0.00000
C          1.42890        0.82500        0.00000
C          1.42890        0.00000        0.00000
