8
Sodium 2,2-dichloropropionate, 94%
C          0.00000       -0.35360        0.00000
C          0.00000       -1.17860        0.00000
C          0.00000        0.47140        0.00000
O         -0.71450        0.88390        0.00000
O          0.71450        0.88390        0.00000
Cl         0.82500       -0.35360        0.00000
Cl        -0.82500       -0.35360        0.00000
Na         3.06430        0.00000        0.00000
