18
sodium 2-(2,4-dichlorophenoxy)ethanyl hydrogen sulfate
S         -0.98240        2.47500        0.00000
O         -0.98240        1.65000        0.00000
O         -0.98240        3.30000        0.00000
O         -1.80740        2.47500        0.00000
O         -0.15740        2.47500        0.00000
H          3.99690        0.00000        0.00000
C         -0.26790        1.23750        0.00000
C         -0.26790        0.41250        0.00000
O          0.44650        0.00000        0.00000
C          0.44650       -0.82500        0.00000
C          1.16100       -1.23750        0.00000
C          1.16100       -2.06250        0.00000
C          0.44650       -2.47500        0.00000
C         -0.26790       -2.06250        0.00000
C         -0.26790       -1.23750        0.00000
Cl         1.87550       -0.82500        0.00000
Cl         0.44650       -3.30000        0.00000
Na         0.00000       -4.95000        0.00000
