7
Sodium dimethyldithiocarbamate
N         -0.20620       -0.35720        0.00000
C          0.20620        0.35720        0.00000
S         -0.20630        1.07170        0.00000
S          1.03120        0.35720        0.00000
C          0.20630       -1.07170        0.00000
C         -1.03120       -0.35720        0.00000
Na         3.27050        0.00000        0.00000
