8
sodium trichloroacetate
Na         0.00000        0.00000        0.00000
O          2.23200       -0.88390        0.00000
C          2.94640       -0.47140        0.00000
O          3.66090       -0.88390        0.00000
C          2.94640        0.35360        0.00000
Cl         2.94640        1.17860        0.00000
Cl         3.77140        0.35360        0.00000
Cl         2.12140        0.35360        0.00000
