23
sodium methyl 5-(2,4-dichlorophenoxy)-2-nitrobenzoate
C          0.97430        0.37500        0.00000
C          0.97430        1.20000        0.00000
O          0.25980        1.61250        0.00000
O          1.68870        1.61250        0.00000
C          1.68870       -0.03750        0.00000
C          1.68870       -0.86250        0.00000
C          0.97430       -1.27500        0.00000
C          0.25980       -0.86250        0.00000
C          0.25980       -0.03750        0.00000
N          2.40320        0.37500        0.00000
O          2.40320        1.20000        0.00000
O          3.11770       -0.03750        0.00000
O         -0.45470       -1.27500        0.00000
C         -1.16910       -0.86250        0.00000
C         -1.88360       -1.27500        0.00000
C         -2.59810       -0.86250        0.00000
C         -2.59810       -0.03750        0.00000
C         -1.88360        0.37500        0.00000
C         -1.16910       -0.03750        0.00000
Cl        -1.88360       -2.10000        0.00000
Cl        -3.31250        0.37500        0.00000
C          0.25980        2.43750        0.00000
Na         5.35700        0.00000        0.00000
