23
sodium 2,2-dimethyl-4,6-dioxo-5-(1-((2- propenyloxy)imino)butyl)cyclohexanecarboxylate ion(1-)
C         -0.64950        1.32130        0.00000
C          0.06500        1.73380        0.00000
C          0.77940        1.32130        0.00000
C          0.77940        0.49630        0.00000
C          0.06500        0.08380        0.00000
C         -0.64950        0.49630        0.00000
C         -1.36400        1.73380        0.00000
O         -1.36400        2.55880        0.00000
O         -2.07850        1.32130        0.00000
C          0.06500       -0.74120        0.00000
C          0.77940       -1.15370        0.00000
C          1.49390       -0.74120        0.00000
C          2.20840       -1.15370        0.00000
N         -0.64950       -1.15370        0.00000
O         -0.64950       -1.97870        0.00000
C          0.06500       -2.39120        0.00000
C          0.06500       -3.21620        0.00000
C          0.77940       -3.62870        0.00000
O          1.49390        0.08380        0.00000
O         -1.36400        0.08380        0.00000
C         -0.32240        2.46220        0.00000
C          0.45230        2.46220        0.00000
Na         4.44770        0.00000        0.00000
