14
sulfate 1-(allyloxycarbonyl)-1-methylethyl
S          4.53750       -2.14340        0.00000
O          4.12500       -1.42890        0.00000
O          4.95000       -2.85790        0.00000
O          5.25200       -1.73090        0.00000
O          3.82300       -2.55590        0.00000
C          3.30000       -1.42890        0.00000
C          3.30000       -0.60390        0.00000
C          3.30000       -2.25390        0.00000
C          2.47500       -1.42890        0.00000
O          2.06250       -2.14340        0.00000
O          2.06250       -0.71450        0.00000
C          1.23750       -0.71450        0.00000
C          0.82500        0.00000        0.00000
C          0.00000        0.00000        0.00000
