16
sulfate copper sulfate pentahydrate
S          0.00000        0.00000        0.00000
O          0.00000       -0.82500        0.00000
O          0.00000        0.82500        0.00000
O          0.82500        0.00000        0.00000
O         -0.82500        0.00000        0.00000
O          3.06430        0.00000        0.00000
O          5.30360        0.00000        0.00000
O          0.00000       -2.47500        0.00000
O          2.23930       -2.47500        0.00000
O          4.47860       -2.47500        0.00000
S          0.00000       -4.95000        0.00000
O          0.00000       -5.77500        0.00000
O          0.00000       -4.12500        0.00000
O          0.82500       -4.95000        0.00000
O         -0.82500       -4.95000        0.00000
Cu         2.94640       -4.95000        0.00000
