16
sulphenone
Cl         0.71450       -1.23750        0.00000
C          0.71450       -2.06250        0.00000
C          1.42890       -2.47500        0.00000
C          1.42890       -3.30000        0.00000
C          0.71450       -3.71250        0.00000
C          0.00000       -3.30000        0.00000
C          0.00000       -2.47500        0.00000
S          0.71450       -4.53750        0.00000
O         -0.11050       -4.53750        0.00000
O          1.53950       -4.53750        0.00000
C          0.71450       -5.36250        0.00000
C          1.42890       -5.77500        0.00000
C          1.42890       -6.60000        0.00000
C          0.71450       -7.01250        0.00000
C          0.00000       -6.60000        0.00000
C          0.00000       -5.77500        0.00000
