29
Talstar
C          6.84270       -6.90200        0.00000
C          6.84270       -6.07700        0.00000
C          6.12830       -5.66450        0.00000
C          5.41380       -6.07700        0.00000
O          4.69930       -5.66450        0.00000
C          3.98490       -6.07700        0.00000
O          3.98490       -6.90200        0.00000
C          3.27040       -5.66450        0.00000
C          2.44540       -5.66450        0.00000
C          1.73090       -6.07700        0.00000
C          1.01640       -5.66450        0.00000
Cl         1.01640       -4.83950        0.00000
C          0.30200       -6.07700        0.00000
F         -0.41250       -6.48950        0.00000
F          0.71450       -6.79140        0.00000
F         -0.11050       -5.36250        0.00000
C          2.85790       -4.95000        0.00000
C          2.38470       -4.27420        0.00000
C          3.33110       -4.27420        0.00000
C          6.12830       -4.83950        0.00000
C          6.84270       -4.42700        0.00000
C          7.55720       -4.83950        0.00000
C          7.55720       -5.66450        0.00000
C          8.27170       -6.07700        0.00000
C          8.98620       -5.66450        0.00000
C          9.70060       -6.07700        0.00000
C          9.70060       -6.90200        0.00000
C          8.98620       -7.31450        0.00000
C          8.27170       -6.90200        0.00000
