21
Tebuconazole
C         -3.16370       -2.42610        0.00000
C         -2.44920       -2.83860        0.00000
C         -1.73470       -3.25110        0.00000
C         -2.86170       -3.55300        0.00000
C         -2.03670       -2.12410        0.00000
O         -1.62420       -1.40960        0.00000
C         -2.75120       -1.71160        0.00000
C         -2.75120       -0.88660        0.00000
C         -3.46560       -0.47410        0.00000
C         -4.18010       -0.88660        0.00000
C         -4.89460       -0.47410        0.00000
C         -4.89460        0.35090        0.00000
Cl        -5.60910        0.76340        0.00000
C         -4.18010        0.76340        0.00000
C         -3.46560        0.35090        0.00000
C         -1.32220       -2.53660        0.00000
N         -1.32220       -3.36160        0.00000
C         -0.65480       -3.84650        0.00000
N         -0.90970       -4.63120        0.00000
C         -1.73470       -4.63120        0.00000
N         -1.98970       -3.84650        0.00000
