20
terallethrin
C          7.28950        1.61880        0.00000
C          7.11790        0.81190        0.00000
C          7.67000        0.19880        0.00000
C          8.49050        0.28500        0.00000
C          8.97540       -0.38240        0.00000
C          9.79590       -0.29620        0.00000
C          7.25750       -0.51570        0.00000
O          7.59300       -1.26940        0.00000
C          6.45050       -0.34420        0.00000
C          6.36430        0.47630        0.00000
O          5.64980        0.88880        0.00000
C          4.93530        0.47630        0.00000
O          4.93530       -0.34870        0.00000
C          4.22090        0.88880        0.00000
C          3.39590        0.88880        0.00000
C          3.25260        0.07630        0.00000
C          2.62060        1.17100        0.00000
C          3.80840        1.60330        0.00000
C          3.33520        2.27910        0.00000
C          4.28160        2.27910        0.00000
