8
tetroxocane
O          0.99590        1.49040        0.00000
O          1.75810        1.17470        0.00000
O          2.07380        0.41250        0.00000
O          1.75810       -0.34970        0.00000
C          0.99590       -0.66540        0.00000
C          0.23370       -0.34970        0.00000
C         -0.08210        0.41250        0.00000
C          0.23370        1.17470        0.00000
