6
tetraiodoethylene
I          1.23750        0.71450        0.00000
C          0.82500        0.00000        0.00000
I          1.23750       -0.71450        0.00000
C          0.00000        0.00000        0.00000
I         -0.41250       -0.71450        0.00000
I         -0.41250        0.71450        0.00000
