14
thiazole-5-carboxanilide
O          2.14340       -1.23750        0.00000
C          1.42890       -1.65000        0.00000
N          0.71450       -1.23750        0.00000
C          0.71450       -0.41250        0.00000
C          0.00000        0.00000        0.00000
C          0.00000        0.82500        0.00000
C          0.71450        1.23750        0.00000
C          1.42890        0.82500        0.00000
C          1.42890        0.00000        0.00000
S          2.09640       -2.95990        0.00000
C          1.84140       -3.74450        0.00000
N          1.01640       -3.74450        0.00000
C          0.76150       -2.95990        0.00000
C          1.42890       -2.47500        0.00000
