15
thidiazuron
O          4.18010       -1.71160        0.00000
C          3.46560       -1.29910        0.00000
N          2.75120       -1.71160        0.00000
C          2.75120       -2.53660        0.00000
C          3.41860       -3.02150        0.00000
N          3.16370       -3.80620        0.00000
N          2.33870       -3.80620        0.00000
S          2.08370       -3.02150        0.00000
N          3.46560       -0.47410        0.00000
C          4.18010       -0.06160        0.00000
C          4.18010        0.76340        0.00000
C          4.89460        1.17590        0.00000
C          5.60910        0.76340        0.00000
C          5.60910       -0.06160        0.00000
C          4.89460       -0.47410        0.00000
