26
thifluzamide
C          1.42890       -1.65000        0.00000
C          1.42890       -2.47500        0.00000
N          2.09640       -2.95990        0.00000
C          1.84140       -3.74450        0.00000
C          1.01640       -3.74450        0.00000
S          0.76150       -2.95990        0.00000
C          0.53150       -4.41200        0.00000
O         -0.28900       -4.32570        0.00000
N          0.86710       -5.16570        0.00000
C          0.38220       -5.83310        0.00000
C          0.71770       -6.58680        0.00000
Br         1.53820       -6.67300        0.00000
C          0.23280       -7.25420        0.00000
C         -0.58770       -7.16800        0.00000
O         -1.07260       -7.83540        0.00000
C         -0.73710       -8.58910        0.00000
F         -0.40150       -9.34280        0.00000
F         -1.49070       -8.92460        0.00000
F          0.01660       -8.25350        0.00000
C         -0.92320       -6.41430        0.00000
C         -0.43830       -5.74690        0.00000
Br        -0.77390       -4.99320        0.00000
C          2.32640       -4.41200        0.00000
F          2.81130       -5.07940        0.00000
F          1.65890       -4.89690        0.00000
F          2.99380       -3.92710        0.00000
