15
tifatol
C         -0.60780       -0.47410        0.00000
N         -0.60780       -1.29910        0.00000
C         -1.27520       -1.78400        0.00000
C         -1.02030       -2.56870        0.00000
S         -0.19530       -2.56870        0.00000
C          0.05970       -1.78400        0.00000
N          0.84430       -1.52910        0.00000
C          1.01580       -0.72210        0.00000
C          0.40270       -0.17010        0.00000
C          0.57430        0.63690        0.00000
C          1.35890        0.89180        0.00000
C          1.53040        1.69880        0.00000
C          1.97200        0.33980        0.00000
C          1.80040       -0.46720        0.00000
C          2.41350       -1.01920        0.00000
