21
triazamate
C         -0.26910       -3.42250        0.00000
C          0.44540       -3.83500        0.00000
O          1.15980       -3.42250        0.00000
C          1.87430       -3.83500        0.00000
O          1.87430       -4.66000        0.00000
C          2.58880       -3.42250        0.00000
S          3.30330       -3.83500        0.00000
C          4.01770       -3.42250        0.00000
N          4.10400       -2.60200        0.00000
C          4.91090       -2.43050        0.00000
N          5.32340       -3.14500        0.00000
N          4.77140       -3.75810        0.00000
C          4.94290       -4.56500        0.00000
O          4.32980       -5.11710        0.00000
N          5.72760       -4.82000        0.00000
C          6.34060       -4.26790        0.00000
C          5.89910       -5.62690        0.00000
C          5.24650       -1.67680        0.00000
C          5.58210       -0.92310        0.00000
C          6.00020       -2.01240        0.00000
C          4.49280       -1.34130        0.00000
