20
tricyclohexyltin hydroxide
O          1.53950        0.41250        0.00000
Sn         2.36450        0.41250        0.00000
C          2.36450       -0.41250        0.00000
C          3.07890       -0.82500        0.00000
C          3.07890       -1.65000        0.00000
C          2.36450       -2.06250        0.00000
C          1.65000       -1.65000        0.00000
C          1.65000       -0.82500        0.00000
C          2.36450        1.23750        0.00000
C          1.65000        1.65000        0.00000
C          1.65000        2.47500        0.00000
C          2.36450        2.88750        0.00000
C          3.07890        2.47500        0.00000
C          3.07890        1.65000        0.00000
C          3.18950        0.41250        0.00000
C          3.60200        1.12700        0.00000
C          4.42700        1.12700        0.00000
C          4.83950        0.41250        0.00000
C          4.42700       -0.30200        0.00000
C          3.60200       -0.30200        0.00000
