8
tricalcium arsenate
Ca         0.00000        0.00000        0.00000
Ca         1.11960        0.00000        0.00000
Ca         0.00000       -2.47500        0.00000
O          2.82860       -3.30000        0.00000
As         2.82860       -2.47500        0.00000
O          2.82860       -1.65000        0.00000
O          3.65360       -2.47500        0.00000
O          2.00360       -2.47500        0.00000
