18
trifluoromethyl-1,3-thiazole-5-carboxanilide
O          2.14340       -1.23750        0.00000
C          1.42890       -1.65000        0.00000
N          0.71450       -1.23750        0.00000
C          0.71450       -0.41250        0.00000
C          0.00000        0.00000        0.00000
C          0.00000        0.82500        0.00000
C          0.71450        1.23750        0.00000
C          1.42890        0.82500        0.00000
C          1.42890        0.00000        0.00000
S          2.09640       -2.95990        0.00000
C          1.84140       -3.74450        0.00000
N          1.01640       -3.74450        0.00000
C          0.76150       -2.95990        0.00000
C          1.42890       -2.47500        0.00000
C          2.32640       -4.41200        0.00000
F          2.81130       -5.07940        0.00000
F          1.65890       -4.89690        0.00000
F          2.99380       -3.92710        0.00000
