8
Trisodium arsenate
O          0.00000       -0.82500        0.00000
As         0.00000        0.00000        0.00000
O          0.00000        0.82500        0.00000
O          0.82500        0.00000        0.00000
O         -0.82500        0.00000        0.00000
Na         3.06430        0.00000        0.00000
Na         0.00000       -2.47500        0.00000
Na         1.00180       -2.47500        0.00000
