18
Velsicol 1068
Cl        -1.49820       -0.68550        0.00000
C         -0.77620       -1.08480        0.00000
C         -0.67490       -1.90360        0.00000
C          0.13510       -2.06020        0.00000
C          0.53440       -1.33830        0.00000
C         -0.02880       -0.73540        0.00000
Cl         0.12780        0.07460        0.00000
C          1.14070       -0.94950        0.00000
Cl         1.37950       -0.15980        0.00000
C          1.93620       -1.41480        0.00000
Cl         2.72430       -1.17070        0.00000
C          1.64110       -2.04020        0.00000
Cl         1.90870       -2.82060        0.00000
C          0.91060       -1.66990        0.00000
Cl         0.90940       -2.49490        0.00000
C          0.98070       -0.13410        0.00000
Cl         0.40100        0.45290        0.00000
Cl         1.46740        0.53200        0.00000
