13
vernolate
C          2.90240        0.87040        0.00000
C          3.71250        0.71450        0.00000
C          4.25260        1.33810        0.00000
S          5.06270        1.18220        0.00000
C          5.60280        1.80580        0.00000
O          5.33280        2.58540        0.00000
N          6.41290        1.64990        0.00000
C          6.95300        2.27360        0.00000
C          7.76320        2.11770        0.00000
C          8.30330        2.74130        0.00000
C          6.68300        0.87040        0.00000
C          7.49310        0.71450        0.00000
C          7.76320       -0.06510        0.00000
