7
vinyl phosphoric acid
O          2.88750       -0.71450        0.00000
P          2.06250       -0.71450        0.00000
O          2.06250        0.11050        0.00000
O          2.06250       -1.53950        0.00000
O          1.23750       -0.71450        0.00000
C          0.82500        0.00000        0.00000
C          0.00000        0.00000        0.00000
