12
zinc N,N'-propylenebisdithiocarbamate
C          0.71450        0.03750        0.00000
C          0.00000       -0.37500        0.00000
C         -0.71450        0.03750        0.00000
N          1.42890       -0.37500        0.00000
C          2.14340        0.03750        0.00000
S          2.85790       -0.37500        0.00000
S          2.14340        0.86250        0.00000
N         -1.42890       -0.37500        0.00000
C         -2.14340        0.03750        0.00000
S         -2.85790       -0.37500        0.00000
S         -2.14340        0.86250        0.00000
Zn         4.97930        0.00000        0.00000
