20
Zolone
C         -2.77720        3.45100        0.00000
C         -2.52230        2.66640        0.00000
O         -1.71530        2.49490        0.00000
P         -1.46040        1.71030        0.00000
S         -2.24500        1.45530        0.00000
O         -0.67570        1.96520        0.00000
C         -0.06260        1.41320        0.00000
C          0.72200        1.66810        0.00000
S         -1.20540        0.92560        0.00000
C         -0.39840        0.75410        0.00000
N         -0.14350       -0.03050        0.00000
C         -0.62840       -0.69790        0.00000
O         -1.45340       -0.69790        0.00000
O         -0.14350       -1.36540        0.00000
C          0.64110       -1.11040        0.00000
C          0.64110       -0.28540        0.00000
C          1.35560        0.12710        0.00000
C          2.07010       -0.28540        0.00000
C          2.07010       -1.11040        0.00000
C          1.35560       -1.52290        0.00000
